REMARK SMILES CC(=O)N[C@H]1[C@H](O[C@H]2[C@@H](O)[C@@H](CO)O[C@@H](O[C@H]3[C@H](O)[C@@H](O)[C@H](O)O[C@@H]3CO)[C@@H]2O)O[C@H](CO)[C@@H](O)[C@@H]1O[C@@H]1O[C@H](CO)[C@H](O)[C@H](O)[C@H]1O
REMARK SMILES IDX 7 1 8 2 15 3 28 4 14 5 11 6 9 7 16 8 17 9 22 10 20 11 24 12
REMARK SMILES IDX 18 13 25 14 23 15 21 17 19 19 26 21 27 22 29 24 12 26 13 27
REMARK SMILES IDX 10 29 6 31 5 32 30 33 36 34 31 35 34 36 4 37 2 38 3 40 1 41
REMARK SMILES IDX 37 42 38 43 47 44 39 45 45 46 40 47 43 48 48 49 46 51 41 53
REMARK SMILES IDX 42 54 44 56 32 58 33 59 35 61
REMARK H PARENT 23 16 21 18 19 20 27 23 29 25 13 28 10 30 4 39 48 50 46 52
REMARK H PARENT 42 55 44 57 33 60 35 62
ROOT
ATOM      1  O   UNL     1      -3.160  -1.363  -5.687  1.00  0.00    -0.341 OA
ENDROOT
BRANCH   1   2
ATOM      2  C   UNL     1      -4.518  -1.022  -6.140  1.00  0.00     0.186 C 
ATOM      3  C   UNL     1      -5.564  -0.454  -8.515  1.00  0.00     0.282 C 
ATOM      4  C   UNL     1      -4.594  -1.331  -7.665  1.00  0.00     0.202 C 
ATOM      5  O   UNL     1      -5.614   0.895  -8.054  1.00  0.00    -0.341 OA
ATOM      6  C   UNL     1      -6.042   0.971  -6.684  1.00  0.00     0.178 C 
ATOM      7  C   UNL     1      -4.913   0.442  -5.810  1.00  0.00     0.177 C 
BRANCH   3   8
ATOM      8  O   UNL     1      -5.158  -0.401  -9.902  1.00  0.00    -0.341 OA
BRANCH   8   9
ATOM      9  C   UNL     1      -5.088  -1.627 -10.645  1.00  0.00     0.184 C 
ATOM     10  C   UNL     1      -5.615  -3.213 -13.056  1.00  0.00     0.279 C 
ATOM     11  C   UNL     1      -6.360  -3.531 -11.751  1.00  0.00     0.201 C 
ATOM     12  O   UNL     1      -4.366  -2.603 -12.782  1.00  0.00    -0.342 OA
ATOM     13  C   UNL     1      -6.477  -2.275 -10.876  1.00  0.00     0.180 C 
ATOM     14  C   UNL     1      -4.487  -1.366 -12.052  1.00  0.00     0.178 C 
BRANCH  10  15
ATOM     15  O   UNL     1      -5.343  -4.391 -13.806  1.00  0.00    -0.366 OA
ATOM     16  H   UNL     1      -5.112  -5.089 -13.172  1.00  0.00     0.213 HD
ENDBRANCH  10  15
BRANCH  11  17
ATOM     17  O   UNL     1      -7.668  -4.056 -12.007  1.00  0.00    -0.385 OA
ATOM     18  H   UNL     1      -8.206  -3.838 -11.220  1.00  0.00     0.211 HD
ENDBRANCH  11  17
BRANCH  13  19
ATOM     19  O   UNL     1      -7.139  -2.684  -9.670  1.00  0.00    -0.387 OA
ATOM     20  H   UNL     1      -6.470  -3.030  -9.046  1.00  0.00     0.211 HD
ENDBRANCH  13  19
BRANCH  14  21
ATOM     21  C   UNL     1      -3.069  -0.786 -12.040  1.00  0.00     0.191 C 
BRANCH  21  22
ATOM     22  O   UNL     1      -2.659  -0.541 -13.394  1.00  0.00    -0.394 OA
ATOM     23  H   UNL     1      -2.859  -1.363 -13.886  1.00  0.00     0.210 HD
ENDBRANCH  21  22
ENDBRANCH  14  21
ENDBRANCH   8   9
ENDBRANCH   3   8
BRANCH   4  24
ATOM     24  O   UNL     1      -4.989  -2.722  -7.844  1.00  0.00    -0.385 OA
ATOM     25  H   UNL     1      -4.176  -3.253  -7.747  1.00  0.00     0.211 HD
ENDBRANCH   4  24
BRANCH   6  26
ATOM     26  C   UNL     1      -6.325   2.445  -6.347  1.00  0.00     0.191 C 
BRANCH  26  27
ATOM     27  O   UNL     1      -7.395   2.921  -7.161  1.00  0.00    -0.394 OA
ATOM     28  H   UNL     1      -7.087   2.796  -8.079  1.00  0.00     0.210 HD
ENDBRANCH  26  27
ENDBRANCH   6  26
BRANCH   7  29
ATOM     29  O   UNL     1      -3.806   1.351  -5.937  1.00  0.00    -0.387 OA
ATOM     30  H   UNL     1      -3.194   0.987  -6.602  1.00  0.00     0.211 HD
ENDBRANCH   7  29
ENDBRANCH   1   2
BRANCH   1  31
ATOM     31  C   UNL     1      -2.967  -1.286  -4.260  1.00  0.00     0.276 C 
ATOM     32  C   UNL     1      -1.522  -1.599  -3.779  1.00  0.00     0.170 C 
ATOM     33  O   UNL     1      -3.153   0.054  -3.837  1.00  0.00    -0.342 OA
ATOM     34  C   UNL     1      -1.569  -1.581  -2.213  1.00  0.00     0.180 C 
ATOM     35  C   UNL     1      -3.478   0.195  -2.466  1.00  0.00     0.178 C 
ATOM     36  C   UNL     1      -2.457  -0.483  -1.543  1.00  0.00     0.177 C 
BRANCH  32  37
ATOM     37  N   UNL     1      -0.930  -2.864  -4.284  1.00  0.00    -0.346 N 
ATOM     38  C   UNL     1       0.291  -2.874  -4.936  1.00  0.00     0.217 C 
ATOM     39  H   UNL     1      -1.278  -3.733  -3.913  1.00  0.00     0.164 HD
ATOM     40  O   UNL     1       0.898  -1.858  -5.260  1.00  0.00    -0.275 OA
ATOM     41  C   UNL     1       0.855  -4.244  -5.236  1.00  0.00     0.114 C 
ENDBRANCH  32  37
BRANCH  34  42
ATOM     42  O   UNL     1      -0.296  -1.697  -1.545  1.00  0.00    -0.341 OA
BRANCH  42  43
ATOM     43  C   UNL     1       0.790  -0.851  -1.924  1.00  0.00     0.282 C 
ATOM     44  C   UNL     1       0.557   0.656  -1.648  1.00  0.00     0.202 C 
ATOM     45  O   UNL     1       1.922  -1.331  -1.176  1.00  0.00    -0.341 OA
ATOM     46  C   UNL     1       1.849   1.485  -1.721  1.00  0.00     0.179 C 
ATOM     47  C   UNL     1       3.128  -0.619  -1.501  1.00  0.00     0.178 C 
ATOM     48  C   UNL     1       2.992   0.806  -0.964  1.00  0.00     0.177 C 
BRANCH  44  49
ATOM     49  O   UNL     1      -0.405   1.190  -2.575  1.00  0.00    -0.385 OA
ATOM     50  H   UNL     1       0.057   1.719  -3.251  1.00  0.00     0.211 HD
ENDBRANCH  44  49
BRANCH  46  51
ATOM     51  O   UNL     1       1.597   2.792  -1.191  1.00  0.00    -0.387 OA
ATOM     52  H   UNL     1       1.555   2.693  -0.218  1.00  0.00     0.211 HD
ENDBRANCH  46  51
BRANCH  47  53
ATOM     53  C   UNL     1       4.296  -1.374  -0.874  1.00  0.00     0.191 C 
BRANCH  53  54
ATOM     54  O   UNL     1       4.320  -2.703  -1.398  1.00  0.00    -0.394 OA
ATOM     55  H   UNL     1       3.414  -3.049  -1.272  1.00  0.00     0.210 HD
ENDBRANCH  53  54
ENDBRANCH  47  53
BRANCH  48  56
ATOM     56  O   UNL     1       2.673   0.807   0.436  1.00  0.00    -0.387 OA
ATOM     57  H   UNL     1       2.207  -0.029   0.631  1.00  0.00     0.211 HD
ENDBRANCH  48  56
ENDBRANCH  42  43
ENDBRANCH  34  42
BRANCH  35  58
ATOM     58  C   UNL     1      -3.563   1.709  -2.186  1.00  0.00     0.191 C 
BRANCH  58  59
ATOM     59  O   UNL     1      -4.522   2.323  -3.048  1.00  0.00    -0.394 OA
ATOM     60  H   UNL     1      -4.133   2.261  -3.947  1.00  0.00     0.210 HD
ENDBRANCH  58  59
ENDBRANCH  35  58
BRANCH  36  61
ATOM     61  O   UNL     1      -3.174  -1.079  -0.440  1.00  0.00    -0.388 OA
ATOM     62  H   UNL     1      -3.387  -0.363   0.187  1.00  0.00     0.211 HD
ENDBRANCH  36  61
ENDBRANCH   1  31
TORSDOF 24
