REMARK SMILES [C]C(=O)[N-][C]1[C](O[C]2[C]([O-])[C]([C][O-])O[C](O[C]3[C]([C][O-])O[C]([O-])[C]([O-])[C]3[O-])[C]2[O-])O[C]([C][O-])[C]([O-])[C]1O[C]1O[C]([C][O-])[C]([O-])[C]([O-])[C]1[O-]
REMARK SMILES IDX 7 1 8 2 15 3 28 4 14 5 11 6 9 7 29 8 10 9 16 10 17 11 22 12
REMARK SMILES IDX 24 13 21 14 26 15 18 16 23 17 25 18 27 19 19 20 20 21 12 22
REMARK SMILES IDX 13 23 6 24 5 25 30 26 36 27 31 28 34 29 35 30 4 31 2 32 3 33
REMARK SMILES IDX 1 34 37 35 38 36 47 37 39 38 45 39 40 40 43 41 48 42 46 43
REMARK SMILES IDX 44 44 41 45 42 46 32 47 33 48
REMARK H PARENT
ROOT
ATOM      1  O   UNL     1      75.728 -29.210 -60.684  1.00  0.00    -0.338 OA
ENDROOT
BRANCH   1   2
ATOM      2  C   UNL     1      76.728 -30.165 -60.395  1.00  0.00     0.088 C 
ATOM      3  C   UNL     1      78.652 -30.488 -58.969  1.00  0.00     0.216 C 
ATOM      4  C   UNL     1      77.599 -29.487 -59.426  1.00  0.00    -0.021 C 
ATOM      5  O   UNL     1      79.464 -30.889 -60.095  1.00  0.00    -0.338 OA
ATOM      6  C   UNL     1      78.725 -31.463 -61.212  1.00  0.00     0.081 C 
ATOM      7  C   UNL     1      77.592 -30.514 -61.602  1.00  0.00    -0.053 C 
ATOM      8  O   UNL     1      76.820 -28.923 -58.382  1.00  0.00    -0.844 OA
ATOM      9  O   UNL     1      78.195 -29.303 -62.092  1.00  0.00    -0.846 OA
BRANCH   3  10
ATOM     10  O   UNL     1      79.376 -29.740 -57.991  1.00  0.00    -0.334 OA
BRANCH  10  11
ATOM     11  C   UNL     1      80.047 -30.600 -57.115  1.00  0.00     0.123 C 
ATOM     12  C   UNL     1      81.665 -30.734 -54.782  1.00  0.00    -0.003 C 
ATOM     13  C   UNL     1      82.284 -31.123 -56.117  1.00  0.00    -0.115 C 
ATOM     14  O   UNL     1      80.274 -31.043 -54.783  1.00  0.00    -0.380 OA
ATOM     15  C   UNL     1      81.539 -30.344 -57.204  1.00  0.00    -0.094 C 
ATOM     16  C   UNL     1      79.496 -30.311 -55.749  1.00  0.00     0.118 C 
ATOM     17  O   UNL     1      82.203 -31.426 -53.734  1.00  0.00    -0.828 OA
ATOM     18  O   UNL     1      83.684 -30.856 -56.083  1.00  0.00    -0.849 OA
ATOM     19  O   UNL     1      81.957 -30.625 -58.532  1.00  0.00    -0.848 OA
BRANCH  16  20
ATOM     20  C   UNL     1      78.059 -30.780 -55.590  1.00  0.00    -0.093 C 
ATOM     21  O   UNL     1      77.578 -30.397 -54.303  1.00  0.00    -0.848 OA
ENDBRANCH  16  20
ENDBRANCH  10  11
ENDBRANCH   3  10
BRANCH   6  22
ATOM     22  C   UNL     1      79.725 -31.668 -62.348  1.00  0.00    -0.097 C 
ATOM     23  O   UNL     1      81.068 -31.882 -61.874  1.00  0.00    -0.848 OA
ENDBRANCH   6  22
ENDBRANCH   1   2
BRANCH   1  24
ATOM     24  C   UNL     1      74.378 -29.621 -60.688  1.00  0.00     0.215 C 
ATOM     25  C   UNL     1      73.518 -28.538 -61.368  1.00  0.00    -0.013 C 
ATOM     26  O   UNL     1      74.167 -30.897 -61.279  1.00  0.00    -0.338 OA
ATOM     27  C   UNL     1      72.047 -28.968 -61.292  1.00  0.00     0.087 C 
ATOM     28  C   UNL     1      72.821 -31.353 -61.072  1.00  0.00     0.081 C 
ATOM     29  C   UNL     1      71.846 -30.417 -61.801  1.00  0.00    -0.053 C 
ATOM     30  O   UNL     1      70.541 -30.955 -61.552  1.00  0.00    -0.846 OA
BRANCH  25  31
ATOM     31  N   UNL     1      73.669 -27.167 -60.911  1.00  0.00    -0.641 NA
BRANCH  31  32
ATOM     32  C   UNL     1      74.134 -26.769 -59.714  1.00  0.00     0.061 C 
ATOM     33  O   UNL     1      74.318 -27.542 -58.770  1.00  0.00    -0.320 OA
ATOM     34  C   UNL     1      74.490 -25.322 -59.593  1.00  0.00     0.051 C 
ENDBRANCH  31  32
ENDBRANCH  25  31
BRANCH  27  35
ATOM     35  O   UNL     1      71.413 -27.982 -62.096  1.00  0.00    -0.338 OA
BRANCH  35  36
ATOM     36  C   UNL     1      70.072 -27.530 -61.687  1.00  0.00     0.212 C 
ATOM     37  C   UNL     1      69.672 -26.215 -62.381  1.00  0.00    -0.069 C 
ATOM     38  O   UNL     1      69.216 -28.627 -62.050  1.00  0.00    -0.338 OA
ATOM     39  C   UNL     1      68.141 -26.030 -62.562  1.00  0.00    -0.138 C 
ATOM     40  C   UNL     1      67.855 -28.355 -61.649  1.00  0.00     0.077 C 
ATOM     41  C   UNL     1      67.358 -27.314 -62.620  1.00  0.00    -0.101 C 
ATOM     42  O   UNL     1      70.274 -25.160 -61.658  1.00  0.00    -0.847 OA
ATOM     43  O   UNL     1      67.880 -25.393 -63.814  1.00  0.00    -0.851 OA
ATOM     44  O   UNL     1      67.579 -27.838 -63.923  1.00  0.00    -0.848 OA
BRANCH  40  45
ATOM     45  C   UNL     1      67.053 -29.665 -61.647  1.00  0.00    -0.097 C 
ATOM     46  O   UNL     1      67.038 -30.415 -62.854  1.00  0.00    -0.848 OA
ENDBRANCH  40  45
ENDBRANCH  35  36
ENDBRANCH  27  35
BRANCH  28  47
ATOM     47  C   UNL     1      72.811 -32.788 -61.546  1.00  0.00    -0.097 C 
ATOM     48  O   UNL     1      73.202 -32.858 -62.934  1.00  0.00    -0.848 OA
ENDBRANCH  28  47
ENDBRANCH   1  24
TORSDOF 12
