# created with PyMOL 3.1.4.1
@<TRIPOS>MOLECULE
8ibt
48 51 4                 
SMALL
USER_CHARGES
@<TRIPOS>ATOM
1	  C1	81.665	-30.734	-54.782	C.3	1	BGC1	0.000	
2	  O1	82.203	-31.426	-53.734	O.3	1	BGC1	0.000	
3	  C2	82.284	-31.123	-56.117	C.3	1	BGC1	0.000	
4	  O2	83.684	-30.856	-56.083	O.3	1	BGC1	0.000	
5	  C3	81.539	-30.344	-57.204	C.3	1	BGC1	0.000	
6	  O3	81.957	-30.625	-58.532	O.3	1	BGC1	0.000	
7	  C4	80.047	-30.600	-57.115	C.3	1	BGC1	0.000	
8	  O4	79.376	-29.740	-57.991	O.3	1	BGC1	0.000	
9	  C5	79.496	-30.311	-55.749	C.3	1	BGC1	0.000	
10	  O5	80.274	-31.043	-54.783	O.3	1	BGC1	0.000	
11	  C6	78.059	-30.780	-55.590	C.3	1	BGC1	0.000	
12	  O6	77.578	-30.397	-54.303	O.3	1	BGC1	0.000	
13	  C1	78.652	-30.488	-58.969	C.3	2	GAL2	0.000	
14	  C2	77.599	-29.487	-59.426	C.3	2	GAL2	0.000	
15	  O2	76.820	-28.923	-58.382	O.3	2	GAL2	0.000	
16	  C3	76.728	-30.165	-60.395	C.3	2	GAL2	0.000	
17	  O3	75.728	-29.210	-60.684	O.3	2	GAL2	0.000	
18	  C4	77.592	-30.514	-61.602	C.3	2	GAL2	0.000	
19	  O4	78.195	-29.303	-62.092	O.3	2	GAL2	0.000	
20	  C5	78.725	-31.463	-61.212	C.3	2	GAL2	0.000	
21	  O5	79.464	-30.889	-60.095	O.3	2	GAL2	0.000	
22	  C6	79.725	-31.668	-62.348	C.3	2	GAL2	0.000	
23	  O6	81.068	-31.882	-61.874	O.3	2	GAL2	0.000	
24	  C1	74.378	-29.621	-60.688	C.3	3	NAG3	0.000	
25	  C2	73.518	-28.538	-61.368	C.3	3	NAG3	0.000	
26	  N2	73.669	-27.167	-60.911	N.pl3	3	NAG3	0.000	
27	  C3	72.047	-28.968	-61.292	C.3	3	NAG3	0.000	
28	  O3	71.413	-27.982	-62.096	O.3	3	NAG3	0.000	
29	  C4	71.846	-30.417	-61.801	C.3	3	NAG3	0.000	
30	  O4	70.541	-30.955	-61.552	O.3	3	NAG3	0.000	
31	  C5	72.821	-31.353	-61.072	C.3	3	NAG3	0.000	
32	  O5	74.167	-30.897	-61.279	O.3	3	NAG3	0.000	
33	  C6	72.811	-32.788	-61.546	C.3	3	NAG3	0.000	
34	  O6	73.202	-32.858	-62.934	O.3	3	NAG3	0.000	
35	  C7	74.134	-26.769	-59.714	C.2	3	NAG3	0.000	
36	  O7	74.318	-27.542	-58.770	O.2	3	NAG3	0.000	
37	  C8	74.490	-25.322	-59.593	C.3	3	NAG3	0.000	
38	  C1	70.072	-27.530	-61.687	C.3	4	GAL4	0.000	
39	  C2	69.672	-26.215	-62.381	C.3	4	GAL4	0.000	
40	  O2	70.274	-25.160	-61.658	O.3	4	GAL4	0.000	
41	  C3	68.141	-26.030	-62.562	C.3	4	GAL4	0.000	
42	  O3	67.880	-25.393	-63.814	O.3	4	GAL4	0.000	
43	  C4	67.358	-27.314	-62.620	C.3	4	GAL4	0.000	
44	  O4	67.579	-27.838	-63.923	O.3	4	GAL4	0.000	
45	  C5	67.855	-28.355	-61.649	C.3	4	GAL4	0.000	
46	  O5	69.216	-28.627	-62.050	O.3	4	GAL4	0.000	
47	  C6	67.053	-29.665	-61.647	C.3	4	GAL4	0.000	
48	  O6	67.038	-30.415	-62.854	O.3	4	GAL4	0.000	
@<TRIPOS>BOND
1 1 2 1
2 1 3 1
3 3 4 1
4 3 5 1
5 5 6 1
6 5 7 1
7 7 8 1
8 7 9 1
9 1 10 1
10 9 10 1
11 9 11 1
12 11 12 1
13 13 14 1
14 14 15 1
15 14 16 1
16 16 17 1
17 16 18 1
18 18 19 1
19 18 20 1
20 13 21 1
21 20 21 1
22 20 22 1
23 22 23 1
24 24 25 1
25 25 26 1
26 25 27 1
27 27 28 1
28 27 29 1
29 29 30 1
30 29 31 1
31 24 32 1
32 31 32 1
33 31 33 1
34 33 34 1
35 26 35 1
36 35 36 2
37 35 37 1
38 38 39 1
39 39 40 1
40 39 41 1
41 41 42 1
42 41 43 1
43 43 44 1
44 43 45 1
45 38 46 1
46 45 46 1
47 45 47 1
48 47 48 1
49 8 13 1
50 17 24 1
51 28 38 1
@<TRIPOS>SUBSTRUCTURE
1	BGC1	1	GROUP	1 C	BGC
2	GAL2	13	GROUP	1 C	GAL
3	NAG3	24	GROUP	1 C	NAG
4	GAL4	38	GROUP	1 C	GAL
