MODEL 1
REMARK VINA RESULT:    -8.782      0.000      0.000
REMARK INTER + INTRA:         -15.694
REMARK INTER:                 -14.942
REMARK INTRA:                  -0.751
REMARK UNBOUND:                -0.751
REMARK SMILES [C]C(=O)[N-][C]1[C](O[C]2[C]([O-])[C]([C][O-])O[C](O[C]3[C]([C][O-])O[C]([O-])[C]([O-])[C]3[O-])[C]2[O-])O[C]([C][O-])[C]([O-])[C]1O[C]1O[C]([C][O-])[C]([O-])[C]([O-])[C]1[O-]
REMARK SMILES IDX 7 1 8 2 15 3 28 4 14 5 11 6 9 7 29 8 10 9 16 10 17 11 22 12
REMARK SMILES IDX 24 13 21 14 26 15 18 16 23 17 25 18 27 19 19 20 20 21 12 22
REMARK SMILES IDX 13 23 6 24 5 25 30 26 36 27 31 28 34 29 35 30 4 31 2 32 3 33
REMARK SMILES IDX 1 34 37 35 38 36 47 37 39 38 45 39 40 40 43 41 48 42 46 43
REMARK SMILES IDX 44 44 41 45 42 46 32 47 33 48
REMARK H PARENT
ROOT
ATOM      1  O   UNL     1      76.099 -29.005 -60.551  1.00  0.00    -0.338 OA
ENDROOT
BRANCH   1   2
ATOM      2  C   UNL     1      77.143 -29.745 -59.953  1.00  0.00     0.088 C 
ATOM      3  C   UNL     1      78.925 -29.501 -58.338  1.00  0.00     0.216 C 
ATOM      4  C   UNL     1      77.841 -28.762 -59.114  1.00  0.00    -0.021 C 
ATOM      5  O   UNL     1      79.885 -30.063 -59.260  1.00  0.00    -0.338 OA
ATOM      6  C   UNL     1      79.325 -30.966 -60.257  1.00  0.00     0.081 C 
ATOM      7  C   UNL     1      78.160 -30.271 -60.961  1.00  0.00    -0.053 C 
ATOM      8  O   UNL     1      76.908 -28.058 -58.309  1.00  0.00    -0.844 OA
ATOM      9  O   UNL     1      78.701 -29.150 -61.684  1.00  0.00    -0.846 OA
BRANCH   3  10
ATOM     10  O   UNL     1      79.470 -28.465 -57.520  1.00  0.00    -0.334 OA
BRANCH  10  11
ATOM     11  C   UNL     1      79.623 -28.912 -56.203  1.00  0.00     0.123 C 
ATOM     12  C   UNL     1      78.905 -30.938 -54.343  1.00  0.00    -0.003 C 
ATOM     13  C   UNL     1      78.373 -29.529 -54.121  1.00  0.00    -0.115 C 
ATOM     14  O   UNL     1      80.179 -30.882 -54.979  1.00  0.00    -0.380 OA
ATOM     15  C   UNL     1      78.282 -28.860 -55.495  1.00  0.00    -0.094 C 
ATOM     16  C   UNL     1      80.166 -30.308 -56.300  1.00  0.00     0.118 C 
ATOM     17  O   UNL     1      79.100 -31.614 -53.171  1.00  0.00    -0.828 OA
ATOM     18  O   UNL     1      77.124 -29.599 -53.438  1.00  0.00    -0.849 OA
ATOM     19  O   UNL     1      77.847 -27.509 -55.473  1.00  0.00    -0.848 OA
BRANCH  16  20
ATOM     20  C   UNL     1      81.602 -30.340 -56.798  1.00  0.00    -0.093 C 
ATOM     21  O   UNL     1      82.367 -31.218 -55.975  1.00  0.00    -0.848 OA
ENDBRANCH  16  20
ENDBRANCH  10  11
ENDBRANCH   3  10
BRANCH   6  22
ATOM     22  C   UNL     1      80.455 -31.320 -61.221  1.00  0.00    -0.097 C 
ATOM     23  O   UNL     1      81.691 -30.656 -60.896  1.00  0.00    -0.848 OA
ENDBRANCH   6  22
ENDBRANCH   1   2
BRANCH   1  24
ATOM     24  C   UNL     1      74.806 -29.569 -60.593  1.00  0.00     0.215 C 
ATOM     25  C   UNL     1      73.841 -28.579 -61.273  1.00  0.00    -0.013 C 
ATOM     26  O   UNL     1      74.757 -30.849 -61.211  1.00  0.00    -0.338 OA
ATOM     27  C   UNL     1      72.428 -29.177 -61.239  1.00  0.00     0.087 C 
ATOM     28  C   UNL     1      73.468 -31.461 -61.043  1.00  0.00     0.081 C 
ATOM     29  C   UNL     1      72.407 -30.629 -61.778  1.00  0.00    -0.053 C 
ATOM     30  O   UNL     1      71.168 -31.319 -61.569  1.00  0.00    -0.846 OA
BRANCH  25  31
ATOM     31  N   UNL     1      73.822 -27.209 -60.789  1.00  0.00    -0.641 NA
BRANCH  31  32
ATOM     32  C   UNL     1      74.089 -26.800 -59.536  1.00  0.00     0.061 C 
ATOM     33  O   UNL     1      73.872 -27.493 -58.539  1.00  0.00    -0.320 OA
ATOM     34  C   UNL     1      74.738 -25.459 -59.405  1.00  0.00     0.051 C 
ENDBRANCH  31  32
ENDBRANCH  25  31
BRANCH  27  35
ATOM     35  O   UNL     1      71.701 -28.255 -62.040  1.00  0.00    -0.338 OA
BRANCH  35  36
ATOM     36  C   UNL     1      70.374 -27.834 -61.558  1.00  0.00     0.212 C 
ATOM     37  C   UNL     1      69.890 -26.550 -62.257  1.00  0.00    -0.069 C 
ATOM     38  O   UNL     1      69.533 -28.966 -61.839  1.00  0.00    -0.338 OA
ATOM     39  C   UNL     1      68.345 -26.417 -62.344  1.00  0.00    -0.138 C 
ATOM     40  C   UNL     1      68.192 -28.725 -61.359  1.00  0.00     0.077 C 
ATOM     41  C   UNL     1      67.602 -27.725 -62.321  1.00  0.00    -0.101 C 
ATOM     42  O   UNL     1      70.501 -25.459 -61.599  1.00  0.00    -0.847 OA
ATOM     43  O   UNL     1      67.986 -25.821 -63.593  1.00  0.00    -0.851 OA
ATOM     44  O   UNL     1      67.757 -28.276 -63.623  1.00  0.00    -0.848 OA
BRANCH  40  45
ATOM     45  C   UNL     1      67.434 -30.058 -61.274  1.00  0.00    -0.097 C 
ATOM     46  O   UNL     1      66.016 -30.001 -61.346  1.00  0.00    -0.848 OA
ENDBRANCH  40  45
ENDBRANCH  35  36
ENDBRANCH  27  35
BRANCH  28  47
ATOM     47  C   UNL     1      73.635 -32.878 -61.543  1.00  0.00    -0.097 C 
ATOM     48  O   UNL     1      73.843 -33.777 -60.433  1.00  0.00    -0.848 OA
ENDBRANCH  28  47
ENDBRANCH   1  24
TORSDOF 12
ENDMDL
MODEL 2
REMARK VINA RESULT:    -8.681      1.543     10.143
REMARK INTER + INTRA:         -15.523
REMARK INTER:                 -14.301
REMARK INTRA:                  -1.221
REMARK UNBOUND:                -0.751
REMARK SMILES [C]C(=O)[N-][C]1[C](O[C]2[C]([O-])[C]([C][O-])O[C](O[C]3[C]([C][O-])O[C]([O-])[C]([O-])[C]3[O-])[C]2[O-])O[C]([C][O-])[C]([O-])[C]1O[C]1O[C]([C][O-])[C]([O-])[C]([O-])[C]1[O-]
REMARK SMILES IDX 7 1 8 2 15 3 28 4 14 5 11 6 9 7 29 8 10 9 16 10 17 11 22 12
REMARK SMILES IDX 24 13 21 14 26 15 18 16 23 17 25 18 27 19 19 20 20 21 12 22
REMARK SMILES IDX 13 23 6 24 5 25 30 26 36 27 31 28 34 29 35 30 4 31 2 32 3 33
REMARK SMILES IDX 1 34 37 35 38 36 47 37 39 38 45 39 40 40 43 41 48 42 46 43
REMARK SMILES IDX 44 44 41 45 42 46 32 47 33 48
REMARK H PARENT
ROOT
ATOM      1  O   UNL     1      74.569 -29.213 -60.367  1.00  0.00    -0.338 OA
ENDROOT
BRANCH   1   2
ATOM      2  C   UNL     1      73.476 -29.317 -61.256  1.00  0.00     0.088 C 
ATOM      3  C   UNL     1      71.095 -28.918 -61.349  1.00  0.00     0.216 C 
ATOM      4  C   UNL     1      72.315 -28.942 -60.438  1.00  0.00    -0.021 C 
ATOM      5  O   UNL     1      70.858 -30.240 -61.881  1.00  0.00    -0.338 OA
ATOM      6  C   UNL     1      71.978 -30.818 -62.613  1.00  0.00     0.081 C 
ATOM      7  C   UNL     1      73.234 -30.741 -61.746  1.00  0.00    -0.053 C 
ATOM      8  O   UNL     1      72.573 -27.725 -59.755  1.00  0.00    -0.844 OA
ATOM      9  O   UNL     1      73.019 -31.583 -60.600  1.00  0.00    -0.846 OA
BRANCH   3  10
ATOM     10  O   UNL     1      70.065 -28.475 -60.464  1.00  0.00    -0.334 OA
BRANCH  10  11
ATOM     11  C   UNL     1      69.157 -27.654 -61.141  1.00  0.00     0.123 C 
ATOM     12  C   UNL     1      68.051 -27.022 -63.682  1.00  0.00    -0.003 C 
ATOM     13  C   UNL     1      68.936 -25.989 -62.999  1.00  0.00    -0.115 C 
ATOM     14  O   UNL     1      67.360 -27.793 -62.703  1.00  0.00    -0.380 OA
ATOM     15  C   UNL     1      69.911 -26.754 -62.100  1.00  0.00    -0.094 C 
ATOM     16  C   UNL     1      68.211 -28.581 -61.848  1.00  0.00     0.118 C 
ATOM     17  O   UNL     1      67.084 -26.451 -64.461  1.00  0.00    -0.828 OA
ATOM     18  O   UNL     1      69.580 -25.192 -63.990  1.00  0.00    -0.849 OA
ATOM     19  O   UNL     1      70.789 -25.936 -61.341  1.00  0.00    -0.848 OA
BRANCH  16  20
ATOM     20  C   UNL     1      67.292 -29.319 -60.888  1.00  0.00    -0.093 C 
ATOM     21  O   UNL     1      66.547 -30.299 -61.608  1.00  0.00    -0.848 OA
ENDBRANCH  16  20
ENDBRANCH  10  11
ENDBRANCH   3  10
BRANCH   6  22
ATOM     22  C   UNL     1      71.594 -32.258 -62.948  1.00  0.00    -0.097 C 
ATOM     23  O   UNL     1      70.199 -32.399 -63.278  1.00  0.00    -0.848 OA
ENDBRANCH   6  22
ENDBRANCH   1   2
BRANCH   1  24
ATOM     24  C   UNL     1      75.865 -29.500 -60.848  1.00  0.00     0.215 C 
ATOM     25  C   UNL     1      76.909 -28.954 -59.855  1.00  0.00    -0.013 C 
ATOM     26  O   UNL     1      76.083 -30.877 -61.125  1.00  0.00    -0.338 OA
ATOM     27  C   UNL     1      78.307 -29.207 -60.434  1.00  0.00     0.087 C 
ATOM     28  C   UNL     1      77.334 -31.082 -61.801  1.00  0.00     0.081 C 
ATOM     29  C   UNL     1      78.489 -30.681 -60.872  1.00  0.00    -0.053 C 
ATOM     30  O   UNL     1      79.686 -30.932 -61.620  1.00  0.00    -0.846 OA
BRANCH  25  31
ATOM     31  N   UNL     1      76.780 -27.571 -59.427  1.00  0.00    -0.641 NA
BRANCH  31  32
ATOM     32  C   UNL     1      75.831 -27.069 -58.618  1.00  0.00     0.061 C 
ATOM     33  O   UNL     1      75.426 -27.652 -57.609  1.00  0.00    -0.320 OA
ATOM     34  C   UNL     1      75.322 -25.707 -58.965  1.00  0.00     0.051 C 
ENDBRANCH  31  32
ENDBRANCH  25  31
BRANCH  27  35
ATOM     35  O   UNL     1      79.145 -28.820 -59.352  1.00  0.00    -0.338 OA
BRANCH  35  36
ATOM     36  C   UNL     1      79.042 -29.592 -58.102  1.00  0.00     0.212 C 
ATOM     37  C   UNL     1      80.379 -30.255 -57.723  1.00  0.00    -0.069 C 
ATOM     38  O   UNL     1      78.616 -28.619 -57.133  1.00  0.00    -0.338 OA
ATOM     39  C   UNL     1      80.568 -30.485 -56.199  1.00  0.00    -0.138 C 
ATOM     40  C   UNL     1      78.407 -29.247 -55.849  1.00  0.00     0.077 C 
ATOM     41  C   UNL     1      79.790 -29.539 -55.323  1.00  0.00    -0.101 C 
ATOM     42  O   UNL     1      80.484 -31.446 -58.478  1.00  0.00    -0.847 OA
ATOM     43  O   UNL     1      81.934 -30.260 -55.847  1.00  0.00    -0.851 OA
ATOM     44  O   UNL     1      80.504 -28.311 -55.358  1.00  0.00    -0.848 OA
BRANCH  40  45
ATOM     45  C   UNL     1      77.566 -28.320 -54.959  1.00  0.00    -0.097 C 
ATOM     46  O   UNL     1      76.403 -28.878 -54.363  1.00  0.00    -0.848 OA
ENDBRANCH  40  45
ENDBRANCH  35  36
ENDBRANCH  27  35
BRANCH  28  47
ATOM     47  C   UNL     1      77.323 -32.533 -62.224  1.00  0.00    -0.097 C 
ATOM     48  O   UNL     1      76.442 -32.717 -63.353  1.00  0.00    -0.848 OA
ENDBRANCH  28  47
ENDBRANCH   1  24
TORSDOF 12
ENDMDL
MODEL 3
REMARK VINA RESULT:    -8.505      1.029      2.009
REMARK INTER + INTRA:         -15.223
REMARK INTER:                 -13.346
REMARK INTRA:                  -1.876
REMARK UNBOUND:                -0.751
REMARK SMILES [C]C(=O)[N-][C]1[C](O[C]2[C]([O-])[C]([C][O-])O[C](O[C]3[C]([C][O-])O[C]([O-])[C]([O-])[C]3[O-])[C]2[O-])O[C]([C][O-])[C]([O-])[C]1O[C]1O[C]([C][O-])[C]([O-])[C]([O-])[C]1[O-]
REMARK SMILES IDX 7 1 8 2 15 3 28 4 14 5 11 6 9 7 29 8 10 9 16 10 17 11 22 12
REMARK SMILES IDX 24 13 21 14 26 15 18 16 23 17 25 18 27 19 19 20 20 21 12 22
REMARK SMILES IDX 13 23 6 24 5 25 30 26 36 27 31 28 34 29 35 30 4 31 2 32 3 33
REMARK SMILES IDX 1 34 37 35 38 36 47 37 39 38 45 39 40 40 43 41 48 42 46 43
REMARK SMILES IDX 44 44 41 45 42 46 32 47 33 48
REMARK H PARENT
ROOT
ATOM      1  O   UNL     1      75.867 -29.440 -60.643  1.00  0.00    -0.338 OA
ENDROOT
BRANCH   1   2
ATOM      2  C   UNL     1      76.940 -30.287 -60.289  1.00  0.00     0.088 C 
ATOM      3  C   UNL     1      78.713 -30.482 -58.658  1.00  0.00     0.216 C 
ATOM      4  C   UNL     1      77.601 -29.583 -59.183  1.00  0.00    -0.021 C 
ATOM      5  O   UNL     1      79.693 -30.701 -59.697  1.00  0.00    -0.338 OA
ATOM      6  C   UNL     1      79.166 -31.277 -60.927  1.00  0.00     0.081 C 
ATOM      7  C   UNL     1      77.975 -30.443 -61.398  1.00  0.00    -0.053 C 
ATOM      8  O   UNL     1      76.642 -29.192 -58.212  1.00  0.00    -0.844 OA
ATOM      9  O   UNL     1      78.472 -29.137 -61.740  1.00  0.00    -0.846 OA
BRANCH   3  10
ATOM     10  O   UNL     1      79.219 -29.726 -57.557  1.00  0.00    -0.334 OA
BRANCH  10  11
ATOM     11  C   UNL     1      79.818 -30.571 -56.617  1.00  0.00     0.123 C 
ATOM     12  C   UNL     1      81.129 -30.679 -54.097  1.00  0.00    -0.003 C 
ATOM     13  C   UNL     1      81.934 -31.003 -55.348  1.00  0.00    -0.115 C 
ATOM     14  O   UNL     1      79.768 -31.059 -54.283  1.00  0.00    -0.380 OA
ATOM     15  C   UNL     1      81.293 -30.237 -56.508  1.00  0.00    -0.094 C 
ATOM     16  C   UNL     1      79.082 -30.344 -55.328  1.00  0.00     0.118 C 
ATOM     17  O   UNL     1      81.565 -31.367 -53.001  1.00  0.00    -0.828 OA
ATOM     18  O   UNL     1      83.301 -30.665 -55.129  1.00  0.00    -0.849 OA
ATOM     19  O   UNL     1      81.892 -30.464 -57.776  1.00  0.00    -0.848 OA
BRANCH  16  20
ATOM     20  C   UNL     1      77.664 -30.890 -55.364  1.00  0.00    -0.093 C 
ATOM     21  O   UNL     1      76.761 -29.889 -54.898  1.00  0.00    -0.848 OA
ENDBRANCH  16  20
ENDBRANCH  10  11
ENDBRANCH   3  10
BRANCH   6  22
ATOM     22  C   UNL     1      80.308 -31.279 -61.942  1.00  0.00    -0.097 C 
ATOM     23  O   UNL     1      80.873 -32.589 -62.139  1.00  0.00    -0.848 OA
ENDBRANCH   6  22
ENDBRANCH   1   2
BRANCH   1  24
ATOM     24  C   UNL     1      74.565 -29.980 -60.699  1.00  0.00     0.215 C 
ATOM     25  C   UNL     1      73.624 -28.972 -61.387  1.00  0.00    -0.013 C 
ATOM     26  O   UNL     1      74.499 -31.258 -61.320  1.00  0.00    -0.338 OA
ATOM     27  C   UNL     1      72.201 -29.545 -61.367  1.00  0.00     0.087 C 
ATOM     28  C   UNL     1      73.198 -31.847 -61.166  1.00  0.00     0.081 C 
ATOM     29  C   UNL     1      72.159 -30.995 -61.909  1.00  0.00    -0.053 C 
ATOM     30  O   UNL     1      70.906 -31.663 -61.713  1.00  0.00    -0.846 OA
BRANCH  25  31
ATOM     31  N   UNL     1      73.626 -27.603 -60.900  1.00  0.00    -0.641 NA
BRANCH  31  32
ATOM     32  C   UNL     1      74.021 -27.186 -59.684  1.00  0.00     0.061 C 
ATOM     33  O   UNL     1      73.664 -27.729 -58.635  1.00  0.00    -0.320 OA
ATOM     34  C   UNL     1      74.989 -26.047 -59.660  1.00  0.00     0.051 C 
ENDBRANCH  31  32
ENDBRANCH  25  31
BRANCH  27  35
ATOM     35  O   UNL     1      71.498 -28.608 -62.173  1.00  0.00    -0.338 OA
BRANCH  35  36
ATOM     36  C   UNL     1      70.238 -28.062 -61.640  1.00  0.00     0.212 C 
ATOM     37  C   UNL     1      69.947 -26.652 -62.184  1.00  0.00    -0.069 C 
ATOM     38  O   UNL     1      69.250 -29.025 -62.046  1.00  0.00    -0.338 OA
ATOM     39  C   UNL     1      68.438 -26.293 -62.249  1.00  0.00    -0.138 C 
ATOM     40  C   UNL     1      67.950 -28.654 -61.536  1.00  0.00     0.077 C 
ATOM     41  C   UNL     1      67.518 -27.477 -62.374  1.00  0.00    -0.101 C 
ATOM     42  O   UNL     1      70.698 -25.740 -61.407  1.00  0.00    -0.847 OA
ATOM     43  O   UNL     1      68.181 -25.513 -63.419  1.00  0.00    -0.851 OA
ATOM     44  O   UNL     1      67.610 -27.892 -63.731  1.00  0.00    -0.848 OA
BRANCH  40  45
ATOM     45  C   UNL     1      67.011 -29.868 -61.603  1.00  0.00    -0.097 C 
ATOM     46  O   UNL     1      67.559 -31.081 -62.100  1.00  0.00    -0.848 OA
ENDBRANCH  40  45
ENDBRANCH  35  36
ENDBRANCH  27  35
BRANCH  28  47
ATOM     47  C   UNL     1      73.344 -33.266 -61.667  1.00  0.00    -0.097 C 
ATOM     48  O   UNL     1      74.686 -33.743 -61.431  1.00  0.00    -0.848 OA
ENDBRANCH  28  47
ENDBRANCH   1  24
TORSDOF 12
ENDMDL
MODEL 4
REMARK VINA RESULT:    -8.175      2.521     11.050
REMARK INTER + INTRA:         -14.661
REMARK INTER:                 -12.415
REMARK INTRA:                  -2.246
REMARK UNBOUND:                -0.751
REMARK SMILES [C]C(=O)[N-][C]1[C](O[C]2[C]([O-])[C]([C][O-])O[C](O[C]3[C]([C][O-])O[C]([O-])[C]([O-])[C]3[O-])[C]2[O-])O[C]([C][O-])[C]([O-])[C]1O[C]1O[C]([C][O-])[C]([O-])[C]([O-])[C]1[O-]
REMARK SMILES IDX 7 1 8 2 15 3 28 4 14 5 11 6 9 7 29 8 10 9 16 10 17 11 22 12
REMARK SMILES IDX 24 13 21 14 26 15 18 16 23 17 25 18 27 19 19 20 20 21 12 22
REMARK SMILES IDX 13 23 6 24 5 25 30 26 36 27 31 28 34 29 35 30 4 31 2 32 3 33
REMARK SMILES IDX 1 34 37 35 38 36 47 37 39 38 45 39 40 40 43 41 48 42 46 43
REMARK SMILES IDX 44 44 41 45 42 46 32 47 33 48
REMARK H PARENT
ROOT
ATOM      1  O   UNL     1      78.251 -29.328 -58.740  1.00  0.00    -0.338 OA
ENDROOT
BRANCH   1   2
ATOM      2  C   UNL     1      76.914 -28.932 -58.510  1.00  0.00     0.088 C 
ATOM      3  C   UNL     1      74.760 -28.890 -59.603  1.00  0.00     0.216 C 
ATOM      4  C   UNL     1      76.242 -29.186 -59.791  1.00  0.00    -0.021 C 
ATOM      5  O   UNL     1      74.579 -27.495 -59.273  1.00  0.00    -0.338 OA
ATOM      6  C   UNL     1      75.301 -27.045 -58.090  1.00  0.00     0.081 C 
ATOM      7  C   UNL     1      76.771 -27.442 -58.220  1.00  0.00    -0.053 C 
ATOM      8  O   UNL     1      76.535 -30.500 -60.243  1.00  0.00    -0.844 OA
ATOM      9  O   UNL     1      77.317 -26.710 -59.332  1.00  0.00    -0.846 OA
BRANCH   3  10
ATOM     10  O   UNL     1      74.217 -29.242 -60.877  1.00  0.00    -0.334 OA
BRANCH  10  11
ATOM     11  C   UNL     1      72.943 -29.800 -60.729  1.00  0.00     0.123 C 
ATOM     12  C   UNL     1      70.716 -30.894 -62.115  1.00  0.00    -0.003 C 
ATOM     13  C   UNL     1      70.543 -29.559 -61.405  1.00  0.00    -0.115 C 
ATOM     14  O   UNL     1      71.670 -31.694 -61.421  1.00  0.00    -0.380 OA
ATOM     15  C   UNL     1      71.917 -28.885 -61.371  1.00  0.00    -0.094 C 
ATOM     16  C   UNL     1      73.002 -31.147 -61.389  1.00  0.00     0.118 C 
ATOM     17  O   UNL     1      69.562 -31.626 -62.142  1.00  0.00    -0.828 OA
ATOM     18  O   UNL     1      69.549 -28.792 -62.080  1.00  0.00    -0.849 OA
ATOM     19  O   UNL     1      71.953 -27.637 -60.693  1.00  0.00    -0.848 OA
BRANCH  16  20
ATOM     20  C   UNL     1      73.855 -32.137 -60.613  1.00  0.00    -0.093 C 
ATOM     21  O   UNL     1      74.084 -33.293 -61.417  1.00  0.00    -0.848 OA
ENDBRANCH  16  20
ENDBRANCH  10  11
ENDBRANCH   3  10
BRANCH   6  22
ATOM     22  C   UNL     1      75.115 -25.532 -58.005  1.00  0.00    -0.097 C 
ATOM     23  O   UNL     1      74.507 -24.979 -59.188  1.00  0.00    -0.848 OA
ENDBRANCH   6  22
ENDBRANCH   1   2
BRANCH   1  24
ATOM     24  C   UNL     1      78.945 -30.001 -57.712  1.00  0.00     0.215 C 
ATOM     25  C   UNL     1      79.978 -30.958 -58.337  1.00  0.00    -0.013 C 
ATOM     26  O   UNL     1      79.552 -29.131 -56.764  1.00  0.00    -0.338 OA
ATOM     27  C   UNL     1      80.666 -31.735 -57.206  1.00  0.00     0.087 C 
ATOM     28  C   UNL     1      80.064 -29.861 -55.638  1.00  0.00     0.081 C 
ATOM     29  C   UNL     1      81.196 -30.789 -56.101  1.00  0.00    -0.053 C 
ATOM     30  O   UNL     1      81.650 -31.458 -54.918  1.00  0.00    -0.846 OA
BRANCH  25  31
ATOM     31  N   UNL     1      79.518 -31.870 -59.370  1.00  0.00    -0.641 NA
BRANCH  31  32
ATOM     32  C   UNL     1      79.845 -31.833 -60.674  1.00  0.00     0.061 C 
ATOM     33  O   UNL     1      79.751 -32.811 -61.421  1.00  0.00    -0.320 OA
ATOM     34  C   UNL     1      80.275 -30.505 -61.208  1.00  0.00     0.051 C 
ENDBRANCH  31  32
ENDBRANCH  25  31
BRANCH  27  35
ATOM     35  O   UNL     1      81.688 -32.429 -57.910  1.00  0.00    -0.338 OA
BRANCH  35  36
ATOM     36  C   UNL     1      83.015 -31.793 -57.983  1.00  0.00     0.212 C 
ATOM     37  C   UNL     1      84.152 -32.806 -57.751  1.00  0.00    -0.069 C 
ATOM     38  O   UNL     1      83.048 -31.222 -59.303  1.00  0.00    -0.338 OA
ATOM     39  C   UNL     1      85.489 -32.433 -58.446  1.00  0.00    -0.138 C 
ATOM     40  C   UNL     1      84.282 -30.499 -59.506  1.00  0.00     0.077 C 
ATOM     41  C   UNL     1      85.340 -31.562 -59.664  1.00  0.00    -0.101 C 
ATOM     42  O   UNL     1      84.284 -32.974 -56.354  1.00  0.00    -0.847 OA
ATOM     43  O   UNL     1      86.125 -33.618 -58.929  1.00  0.00    -0.851 OA
ATOM     44  O   UNL     1      84.893 -32.426 -60.701  1.00  0.00    -0.848 OA
BRANCH  40  45
ATOM     45  C   UNL     1      84.130 -29.560 -60.712  1.00  0.00    -0.097 C 
ATOM     46  O   UNL     1      85.319 -29.194 -61.399  1.00  0.00    -0.848 OA
ENDBRANCH  40  45
ENDBRANCH  35  36
ENDBRANCH  27  35
BRANCH  28  47
ATOM     47  C   UNL     1      80.466 -28.807 -54.632  1.00  0.00    -0.097 C 
ATOM     48  O   UNL     1      79.300 -28.100 -54.157  1.00  0.00    -0.848 OA
ENDBRANCH  28  47
ENDBRANCH   1  24
TORSDOF 12
ENDMDL
MODEL 5
REMARK VINA RESULT:    -8.114      2.110      5.204
REMARK INTER + INTRA:         -14.557
REMARK INTER:                 -13.498
REMARK INTRA:                  -1.060
REMARK UNBOUND:                -0.751
REMARK SMILES [C]C(=O)[N-][C]1[C](O[C]2[C]([O-])[C]([C][O-])O[C](O[C]3[C]([C][O-])O[C]([O-])[C]([O-])[C]3[O-])[C]2[O-])O[C]([C][O-])[C]([O-])[C]1O[C]1O[C]([C][O-])[C]([O-])[C]([O-])[C]1[O-]
REMARK SMILES IDX 7 1 8 2 15 3 28 4 14 5 11 6 9 7 29 8 10 9 16 10 17 11 22 12
REMARK SMILES IDX 24 13 21 14 26 15 18 16 23 17 25 18 27 19 19 20 20 21 12 22
REMARK SMILES IDX 13 23 6 24 5 25 30 26 36 27 31 28 34 29 35 30 4 31 2 32 3 33
REMARK SMILES IDX 1 34 37 35 38 36 47 37 39 38 45 39 40 40 43 41 48 42 46 43
REMARK SMILES IDX 44 44 41 45 42 46 32 47 33 48
REMARK H PARENT
ROOT
ATOM      1  O   UNL     1      77.189 -30.192 -60.130  1.00  0.00    -0.338 OA
ENDROOT
BRANCH   1   2
ATOM      2  C   UNL     1      78.438 -29.894 -59.543  1.00  0.00     0.088 C 
ATOM      3  C   UNL     1      80.613 -30.879 -59.166  1.00  0.00     0.216 C 
ATOM      4  C   UNL     1      79.202 -31.141 -59.676  1.00  0.00    -0.021 C 
ATOM      5  O   UNL     1      80.567 -30.531 -57.764  1.00  0.00    -0.338 OA
ATOM      6  C   UNL     1      79.731 -29.382 -57.443  1.00  0.00     0.081 C 
ATOM      7  C   UNL     1      78.344 -29.587 -58.052  1.00  0.00    -0.053 C 
ATOM      8  O   UNL     1      79.130 -31.616 -61.012  1.00  0.00    -0.844 OA
ATOM      9  O   UNL     1      77.749 -30.720 -57.394  1.00  0.00    -0.846 OA
BRANCH   3  10
ATOM     10  O   UNL     1      81.262 -32.126 -59.416  1.00  0.00    -0.334 OA
BRANCH  10  11
ATOM     11  C   UNL     1      82.629 -31.931 -59.638  1.00  0.00     0.123 C 
ATOM     12  C   UNL     1      84.766 -30.067 -59.452  1.00  0.00    -0.003 C 
ATOM     13  C   UNL     1      84.295 -30.494 -60.835  1.00  0.00    -0.115 C 
ATOM     14  O   UNL     1      84.580 -31.133 -58.525  1.00  0.00    -0.380 OA
ATOM     15  C   UNL     1      82.818 -30.875 -60.711  1.00  0.00    -0.094 C 
ATOM     16  C   UNL     1      83.208 -31.517 -58.317  1.00  0.00     0.118 C 
ATOM     17  O   UNL     1      86.099 -29.770 -59.421  1.00  0.00    -0.828 OA
ATOM     18  O   UNL     1      84.534 -29.437 -61.761  1.00  0.00    -0.849 OA
ATOM     19  O   UNL     1      82.222 -31.351 -61.909  1.00  0.00    -0.848 OA
BRANCH  16  20
ATOM     20  C   UNL     1      83.226 -32.653 -57.308  1.00  0.00    -0.093 C 
ATOM     21  O   UNL     1      83.999 -32.264 -56.174  1.00  0.00    -0.848 OA
ENDBRANCH  16  20
ENDBRANCH  10  11
ENDBRANCH   3  10
BRANCH   6  22
ATOM     22  C   UNL     1      79.684 -29.278 -55.920  1.00  0.00    -0.097 C 
ATOM     23  O   UNL     1      80.439 -28.159 -55.417  1.00  0.00    -0.848 OA
ENDBRANCH   6  22
ENDBRANCH   1   2
BRANCH   1  24
ATOM     24  C   UNL     1      76.270 -29.142 -60.341  1.00  0.00     0.215 C 
ATOM     25  C   UNL     1      74.837 -29.708 -60.326  1.00  0.00    -0.013 C 
ATOM     26  O   UNL     1      76.410 -28.062 -59.426  1.00  0.00    -0.338 OA
ATOM     27  C   UNL     1      73.861 -28.565 -60.635  1.00  0.00     0.087 C 
ATOM     28  C   UNL     1      75.599 -26.942 -59.811  1.00  0.00     0.081 C 
ATOM     29  C   UNL     1      74.116 -27.333 -59.732  1.00  0.00    -0.053 C 
ATOM     30  O   UNL     1      73.389 -26.158 -60.115  1.00  0.00    -0.846 OA
BRANCH  25  31
ATOM     31  N   UNL     1      74.554 -30.857 -61.169  1.00  0.00    -0.641 NA
BRANCH  31  32
ATOM     32  C   UNL     1      74.286 -32.107 -60.754  1.00  0.00     0.061 C 
ATOM     33  O   UNL     1      73.190 -32.651 -60.912  1.00  0.00    -0.320 OA
ATOM     34  C   UNL     1      75.423 -32.854 -60.135  1.00  0.00     0.051 C 
ENDBRANCH  31  32
ENDBRANCH  25  31
BRANCH  27  35
ATOM     35  O   UNL     1      72.602 -29.189 -60.416  1.00  0.00    -0.338 OA
BRANCH  35  36
ATOM     36  C   UNL     1      71.541 -28.947 -61.408  1.00  0.00     0.212 C 
ATOM     37  C   UNL     1      70.395 -29.968 -61.284  1.00  0.00    -0.069 C 
ATOM     38  O   UNL     1      71.113 -27.603 -61.130  1.00  0.00    -0.338 OA
ATOM     39  C   UNL     1      69.015 -29.438 -61.757  1.00  0.00    -0.138 C 
ATOM     40  C   UNL     1      70.101 -27.193 -62.077  1.00  0.00     0.077 C 
ATOM     41  C   UNL     1      68.857 -27.943 -61.674  1.00  0.00    -0.101 C 
ATOM     42  O   UNL     1      70.800 -31.138 -61.968  1.00  0.00    -0.847 OA
ATOM     43  O   UNL     1      67.987 -29.955 -60.910  1.00  0.00    -0.851 OA
ATOM     44  O   UNL     1      68.640 -27.658 -60.298  1.00  0.00    -0.848 OA
BRANCH  40  45
ATOM     45  C   UNL     1      69.966 -25.663 -62.047  1.00  0.00    -0.097 C 
ATOM     46  O   UNL     1      69.622 -25.022 -63.268  1.00  0.00    -0.848 OA
ENDBRANCH  40  45
ENDBRANCH  35  36
ENDBRANCH  27  35
BRANCH  28  47
ATOM     47  C   UNL     1      76.017 -25.816 -58.894  1.00  0.00    -0.097 C 
ATOM     48  O   UNL     1      77.138 -26.224 -58.081  1.00  0.00    -0.848 OA
ENDBRANCH  28  47
ENDBRANCH   1  24
TORSDOF 12
ENDMDL
MODEL 6
REMARK VINA RESULT:    -8.057      2.146      5.814
REMARK INTER + INTRA:         -14.461
REMARK INTER:                 -13.316
REMARK INTRA:                  -1.146
REMARK UNBOUND:                -0.751
REMARK SMILES [C]C(=O)[N-][C]1[C](O[C]2[C]([O-])[C]([C][O-])O[C](O[C]3[C]([C][O-])O[C]([O-])[C]([O-])[C]3[O-])[C]2[O-])O[C]([C][O-])[C]([O-])[C]1O[C]1O[C]([C][O-])[C]([O-])[C]([O-])[C]1[O-]
REMARK SMILES IDX 7 1 8 2 15 3 28 4 14 5 11 6 9 7 29 8 10 9 16 10 17 11 22 12
REMARK SMILES IDX 24 13 21 14 26 15 18 16 23 17 25 18 27 19 19 20 20 21 12 22
REMARK SMILES IDX 13 23 6 24 5 25 30 26 36 27 31 28 34 29 35 30 4 31 2 32 3 33
REMARK SMILES IDX 1 34 37 35 38 36 47 37 39 38 45 39 40 40 43 41 48 42 46 43
REMARK SMILES IDX 44 44 41 45 42 46 32 47 33 48
REMARK H PARENT
ROOT
ATOM      1  O   UNL     1      76.692 -29.758 -60.248  1.00  0.00    -0.338 OA
ENDROOT
BRANCH   1   2
ATOM      2  C   UNL     1      78.062 -29.610 -59.937  1.00  0.00     0.088 C 
ATOM      3  C   UNL     1      80.182 -30.730 -60.238  1.00  0.00     0.216 C 
ATOM      4  C   UNL     1      78.676 -30.849 -60.431  1.00  0.00    -0.021 C 
ATOM      5  O   UNL     1      80.485 -30.612 -58.830  1.00  0.00    -0.338 OA
ATOM      6  C   UNL     1      79.836 -29.497 -58.153  1.00  0.00     0.081 C 
ATOM      7  C   UNL     1      78.335 -29.545 -58.438  1.00  0.00    -0.053 C 
ATOM      8  O   UNL     1      78.264 -31.098 -61.767  1.00  0.00    -0.844 OA
ATOM      9  O   UNL     1      77.820 -30.744 -57.833  1.00  0.00    -0.846 OA
BRANCH   3  10
ATOM     10  O   UNL     1      80.658 -31.946 -60.817  1.00  0.00    -0.334 OA
BRANCH  10  11
ATOM     11  C   UNL     1      81.794 -31.705 -61.597  1.00  0.00     0.123 C 
ATOM     12  C   UNL     1      83.937 -32.924 -63.013  1.00  0.00    -0.003 C 
ATOM     13  C   UNL     1      84.259 -32.123 -61.759  1.00  0.00    -0.115 C 
ATOM     14  O   UNL     1      82.789 -32.377 -63.657  1.00  0.00    -0.380 OA
ATOM     15  C   UNL     1      83.026 -32.186 -60.854  1.00  0.00    -0.094 C 
ATOM     16  C   UNL     1      81.576 -32.445 -62.885  1.00  0.00     0.118 C 
ATOM     17  O   UNL     1      84.943 -32.879 -63.936  1.00  0.00    -0.828 OA
ATOM     18  O   UNL     1      85.437 -32.649 -61.154  1.00  0.00    -0.849 OA
ATOM     19  O   UNL     1      83.132 -31.444 -59.648  1.00  0.00    -0.848 OA
BRANCH  16  20
ATOM     20  C   UNL     1      80.485 -31.818 -63.738  1.00  0.00    -0.093 C 
ATOM     21  O   UNL     1      79.671 -32.849 -64.293  1.00  0.00    -0.848 OA
ENDBRANCH  16  20
ENDBRANCH  10  11
ENDBRANCH   3  10
BRANCH   6  22
ATOM     22  C   UNL     1      80.147 -29.639 -56.665  1.00  0.00    -0.097 C 
ATOM     23  O   UNL     1      80.300 -28.367 -56.006  1.00  0.00    -0.848 OA
ENDBRANCH   6  22
ENDBRANCH   1   2
BRANCH   1  24
ATOM     24  C   UNL     1      75.889 -28.602 -60.341  1.00  0.00     0.215 C 
ATOM     25  C   UNL     1      74.403 -29.012 -60.323  1.00  0.00    -0.013 C 
ATOM     26  O   UNL     1      76.169 -27.625 -59.347  1.00  0.00    -0.338 OA
ATOM     27  C   UNL     1      73.549 -27.749 -60.504  1.00  0.00     0.087 C 
ATOM     28  C   UNL     1      75.475 -26.396 -59.612  1.00  0.00     0.081 C 
ATOM     29  C   UNL     1      73.960 -26.632 -59.514  1.00  0.00    -0.053 C 
ATOM     30  O   UNL     1      73.357 -25.359 -59.776  1.00  0.00    -0.846 OA
BRANCH  25  31
ATOM     31  N   UNL     1      73.975 -30.049 -61.245  1.00  0.00    -0.641 NA
BRANCH  31  32
ATOM     32  C   UNL     1      74.148 -31.374 -61.097  1.00  0.00     0.061 C 
ATOM     33  O   UNL     1      74.509 -31.893 -60.037  1.00  0.00    -0.320 OA
ATOM     34  C   UNL     1      73.814 -32.220 -62.283  1.00  0.00     0.051 C 
ENDBRANCH  31  32
ENDBRANCH  25  31
BRANCH  27  35
ATOM     35  O   UNL     1      72.237 -28.252 -60.293  1.00  0.00    -0.338 OA
BRANCH  35  36
ATOM     36  C   UNL     1      71.291 -28.181 -61.420  1.00  0.00     0.212 C 
ATOM     37  C   UNL     1      70.177 -29.237 -61.303  1.00  0.00    -0.069 C 
ATOM     38  O   UNL     1      70.784 -26.836 -61.356  1.00  0.00    -0.338 OA
ATOM     39  C   UNL     1      68.843 -28.835 -61.989  1.00  0.00    -0.138 C 
ATOM     40  C   UNL     1      69.876 -26.590 -62.452  1.00  0.00     0.077 C 
ATOM     41  C   UNL     1      68.622 -27.351 -62.104  1.00  0.00    -0.101 C 
ATOM     42  O   UNL     1      70.703 -30.455 -61.791  1.00  0.00    -0.847 OA
ATOM     43  O   UNL     1      67.743 -29.302 -61.207  1.00  0.00    -0.851 OA
ATOM     44  O   UNL     1      68.234 -26.920 -60.806  1.00  0.00    -0.848 OA
BRANCH  40  45
ATOM     45  C   UNL     1      69.682 -25.076 -62.623  1.00  0.00    -0.097 C 
ATOM     46  O   UNL     1      69.715 -24.566 -63.949  1.00  0.00    -0.848 OA
ENDBRANCH  40  45
ENDBRANCH  35  36
ENDBRANCH  27  35
BRANCH  28  47
ATOM     47  C   UNL     1      76.036 -25.402 -58.622  1.00  0.00    -0.097 C 
ATOM     48  O   UNL     1      75.517 -25.665 -57.301  1.00  0.00    -0.848 OA
ENDBRANCH  28  47
ENDBRANCH   1  24
TORSDOF 12
ENDMDL
MODEL 7
REMARK VINA RESULT:    -8.050      2.108      5.354
REMARK INTER + INTRA:         -14.448
REMARK INTER:                 -12.655
REMARK INTRA:                  -1.793
REMARK UNBOUND:                -0.751
REMARK SMILES [C]C(=O)[N-][C]1[C](O[C]2[C]([O-])[C]([C][O-])O[C](O[C]3[C]([C][O-])O[C]([O-])[C]([O-])[C]3[O-])[C]2[O-])O[C]([C][O-])[C]([O-])[C]1O[C]1O[C]([C][O-])[C]([O-])[C]([O-])[C]1[O-]
REMARK SMILES IDX 7 1 8 2 15 3 28 4 14 5 11 6 9 7 29 8 10 9 16 10 17 11 22 12
REMARK SMILES IDX 24 13 21 14 26 15 18 16 23 17 25 18 27 19 19 20 20 21 12 22
REMARK SMILES IDX 13 23 6 24 5 25 30 26 36 27 31 28 34 29 35 30 4 31 2 32 3 33
REMARK SMILES IDX 1 34 37 35 38 36 47 37 39 38 45 39 40 40 43 41 48 42 46 43
REMARK SMILES IDX 44 44 41 45 42 46 32 47 33 48
REMARK H PARENT
ROOT
ATOM      1  O   UNL     1      76.034 -30.398 -59.487  1.00  0.00    -0.338 OA
ENDROOT
BRANCH   1   2
ATOM      2  C   UNL     1      77.307 -29.860 -59.196  1.00  0.00     0.088 C 
ATOM      3  C   UNL     1      79.649 -30.454 -59.256  1.00  0.00     0.216 C 
ATOM      4  C   UNL     1      78.230 -30.977 -59.439  1.00  0.00    -0.021 C 
ATOM      5  O   UNL     1      79.833 -30.012 -57.893  1.00  0.00    -0.338 OA
ATOM      6  C   UNL     1      78.895 -28.990 -57.447  1.00  0.00     0.081 C 
ATOM      7  C   UNL     1      77.469 -29.460 -57.734  1.00  0.00    -0.053 C 
ATOM      8  O   UNL     1      77.967 -31.558 -60.708  1.00  0.00    -0.844 OA
ATOM      9  O   UNL     1      77.226 -30.619 -56.917  1.00  0.00    -0.846 OA
BRANCH   3  10
ATOM     10  O   UNL     1      80.437 -31.598 -59.589  1.00  0.00    -0.334 OA
BRANCH  10  11
ATOM     11  C   UNL     1      81.600 -31.212 -60.264  1.00  0.00     0.123 C 
ATOM     12  C   UNL     1      83.982 -32.146 -61.502  1.00  0.00    -0.003 C 
ATOM     13  C   UNL     1      84.101 -31.341 -60.216  1.00  0.00    -0.115 C 
ATOM     14  O   UNL     1      82.838 -31.720 -62.238  1.00  0.00    -0.380 OA
ATOM     15  C   UNL     1      82.811 -31.565 -59.422  1.00  0.00    -0.094 C 
ATOM     16  C   UNL     1      81.579 -31.943 -61.574  1.00  0.00     0.118 C 
ATOM     17  O   UNL     1      85.051 -31.966 -62.333  1.00  0.00    -0.828 OA
ATOM     18  O   UNL     1      85.276 -31.741 -59.516  1.00  0.00    -0.849 OA
ATOM     19  O   UNL     1      82.727 -30.841 -58.203  1.00  0.00    -0.848 OA
BRANCH  16  20
ATOM     20  C   UNL     1      80.500 -31.427 -62.512  1.00  0.00    -0.093 C 
ATOM     21  O   UNL     1      80.619 -32.083 -63.774  1.00  0.00    -0.848 OA
ENDBRANCH  16  20
ENDBRANCH  10  11
ENDBRANCH   3  10
BRANCH   6  22
ATOM     22  C   UNL     1      79.146 -28.778 -55.955  1.00  0.00    -0.097 C 
ATOM     23  O   UNL     1      80.504 -28.393 -55.669  1.00  0.00    -0.848 OA
ENDBRANCH   6  22
ENDBRANCH   1   2
BRANCH   1  24
ATOM     24  C   UNL     1      75.084 -29.580 -60.136  1.00  0.00     0.215 C 
ATOM     25  C   UNL     1      73.712 -30.282 -60.121  1.00  0.00    -0.013 C 
ATOM     26  O   UNL     1      74.999 -28.264 -59.604  1.00  0.00    -0.338 OA
ATOM     27  C   UNL     1      72.714 -29.414 -60.898  1.00  0.00     0.087 C 
ATOM     28  C   UNL     1      74.177 -27.421 -60.426  1.00  0.00     0.081 C 
ATOM     29  C   UNL     1      72.733 -27.944 -60.412  1.00  0.00    -0.053 C 
ATOM     30  O   UNL     1      71.990 -27.038 -61.239  1.00  0.00    -0.846 OA
BRANCH  25  31
ATOM     31  N   UNL     1      73.650 -31.659 -60.580  1.00  0.00    -0.641 NA
BRANCH  31  32
ATOM     32  C   UNL     1      74.499 -32.257 -61.435  1.00  0.00     0.061 C 
ATOM     33  O   UNL     1      74.725 -31.830 -62.571  1.00  0.00    -0.320 OA
ATOM     34  C   UNL     1      75.225 -33.455 -60.914  1.00  0.00     0.051 C 
ENDBRANCH  31  32
ENDBRANCH  25  31
BRANCH  27  35
ATOM     35  O   UNL     1      71.487 -30.087 -60.650  1.00  0.00    -0.338 OA
BRANCH  35  36
ATOM     36  C   UNL     1      70.479 -30.082 -61.724  1.00  0.00     0.212 C 
ATOM     37  C   UNL     1      69.895 -31.485 -61.972  1.00  0.00    -0.069 C 
ATOM     38  O   UNL     1      69.489 -29.148 -61.259  1.00  0.00    -0.338 OA
ATOM     39  C   UNL     1      68.448 -31.483 -62.533  1.00  0.00    -0.138 C 
ATOM     40  C   UNL     1      68.449 -28.985 -62.248  1.00  0.00     0.077 C 
ATOM     41  C   UNL     1      67.644 -30.258 -62.188  1.00  0.00    -0.101 C 
ATOM     42  O   UNL     1      70.808 -32.178 -62.800  1.00  0.00    -0.847 OA
ATOM     43  O   UNL     1      67.712 -32.568 -61.965  1.00  0.00    -0.851 OA
ATOM     44  O   UNL     1      67.255 -30.427 -60.831  1.00  0.00    -0.848 OA
BRANCH  40  45
ATOM     45  C   UNL     1      67.652 -27.707 -61.945  1.00  0.00    -0.097 C 
ATOM     46  O   UNL     1      68.093 -26.916 -60.849  1.00  0.00    -0.848 OA
ENDBRANCH  40  45
ENDBRANCH  35  36
ENDBRANCH  27  35
BRANCH  28  47
ATOM     47  C   UNL     1      74.361 -26.027 -59.872  1.00  0.00    -0.097 C 
ATOM     48  O   UNL     1      74.826 -26.089 -58.507  1.00  0.00    -0.848 OA
ENDBRANCH  28  47
ENDBRANCH   1  24
TORSDOF 12
ENDMDL
MODEL 8
REMARK VINA RESULT:    -7.990      1.761      9.759
REMARK INTER + INTRA:         -14.346
REMARK INTER:                 -12.870
REMARK INTRA:                  -1.476
REMARK UNBOUND:                -0.751
REMARK SMILES [C]C(=O)[N-][C]1[C](O[C]2[C]([O-])[C]([C][O-])O[C](O[C]3[C]([C][O-])O[C]([O-])[C]([O-])[C]3[O-])[C]2[O-])O[C]([C][O-])[C]([O-])[C]1O[C]1O[C]([C][O-])[C]([O-])[C]([O-])[C]1[O-]
REMARK SMILES IDX 7 1 8 2 15 3 28 4 14 5 11 6 9 7 29 8 10 9 16 10 17 11 22 12
REMARK SMILES IDX 24 13 21 14 26 15 18 16 23 17 25 18 27 19 19 20 20 21 12 22
REMARK SMILES IDX 13 23 6 24 5 25 30 26 36 27 31 28 34 29 35 30 4 31 2 32 3 33
REMARK SMILES IDX 1 34 37 35 38 36 47 37 39 38 45 39 40 40 43 41 48 42 46 43
REMARK SMILES IDX 44 44 41 45 42 46 32 47 33 48
REMARK H PARENT
ROOT
ATOM      1  O   UNL     1      76.151 -31.203 -59.673  1.00  0.00    -0.338 OA
ENDROOT
BRANCH   1   2
ATOM      2  C   UNL     1      75.244 -31.175 -60.756  1.00  0.00     0.088 C 
ATOM      3  C   UNL     1      72.983 -30.510 -61.288  1.00  0.00     0.216 C 
ATOM      4  C   UNL     1      73.995 -30.679 -60.163  1.00  0.00    -0.021 C 
ATOM      5  O   UNL     1      72.710 -31.792 -61.895  1.00  0.00    -0.338 OA
ATOM      6  C   UNL     1      73.880 -32.486 -62.418  1.00  0.00     0.081 C 
ATOM      7  C   UNL     1      74.947 -32.558 -61.327  1.00  0.00    -0.053 C 
ATOM      8  O   UNL     1      74.248 -29.505 -59.407  1.00  0.00    -0.844 OA
ATOM      9  O   UNL     1      74.425 -33.381 -60.269  1.00  0.00    -0.846 OA
BRANCH   3  10
ATOM     10  O   UNL     1      71.857 -29.961 -60.601  1.00  0.00    -0.334 OA
BRANCH  10  11
ATOM     11  C   UNL     1      71.177 -29.055 -61.422  1.00  0.00     0.123 C 
ATOM     12  C   UNL     1      69.307 -26.914 -61.462  1.00  0.00    -0.003 C 
ATOM     13  C   UNL     1      68.902 -28.243 -62.083  1.00  0.00    -0.115 C 
ATOM     14  O   UNL     1      70.712 -26.723 -61.600  1.00  0.00    -0.380 OA
ATOM     15  C   UNL     1      69.689 -29.339 -61.360  1.00  0.00    -0.094 C 
ATOM     16  C   UNL     1      71.522 -27.689 -60.903  1.00  0.00     0.118 C 
ATOM     17  O   UNL     1      68.720 -25.847 -62.080  1.00  0.00    -0.828 OA
ATOM     18  O   UNL     1      67.488 -28.398 -61.984  1.00  0.00    -0.849 OA
ATOM     19  O   UNL     1      69.469 -30.654 -61.850  1.00  0.00    -0.848 OA
BRANCH  16  20
ATOM     20  C   UNL     1      72.970 -27.313 -61.173  1.00  0.00    -0.093 C 
ATOM     21  O   UNL     1      73.482 -26.582 -60.061  1.00  0.00    -0.848 OA
ENDBRANCH  16  20
ENDBRANCH  10  11
ENDBRANCH   3  10
BRANCH   6  22
ATOM     22  C   UNL     1      73.414 -33.870 -62.864  1.00  0.00    -0.097 C 
ATOM     23  O   UNL     1      72.047 -33.877 -63.317  1.00  0.00    -0.848 OA
ENDBRANCH   6  22
ENDBRANCH   1   2
BRANCH   1  24
ATOM     24  C   UNL     1      77.502 -30.874 -59.911  1.00  0.00     0.215 C 
ATOM     25  C   UNL     1      78.012 -29.964 -58.777  1.00  0.00    -0.013 C 
ATOM     26  O   UNL     1      78.347 -32.004 -60.089  1.00  0.00    -0.338 OA
ATOM     27  C   UNL     1      79.457 -29.556 -59.095  1.00  0.00     0.087 C 
ATOM     28  C   UNL     1      79.657 -31.614 -60.529  1.00  0.00     0.081 C 
ATOM     29  C   UNL     1      80.339 -30.783 -59.433  1.00  0.00    -0.053 C 
ATOM     30  O   UNL     1      81.634 -30.455 -59.952  1.00  0.00    -0.846 OA
BRANCH  25  31
ATOM     31  N   UNL     1      77.219 -28.796 -58.437  1.00  0.00    -0.641 NA
BRANCH  31  32
ATOM     32  C   UNL     1      77.135 -27.653 -59.139  1.00  0.00     0.061 C 
ATOM     33  O   UNL     1      76.811 -27.614 -60.329  1.00  0.00    -0.320 OA
ATOM     34  C   UNL     1      77.396 -26.391 -58.380  1.00  0.00     0.051 C 
ENDBRANCH  31  32
ENDBRANCH  25  31
BRANCH  27  35
ATOM     35  O   UNL     1      79.839 -28.883 -57.902  1.00  0.00    -0.338 OA
BRANCH  35  36
ATOM     36  C   UNL     1      79.450 -29.496 -56.621  1.00  0.00     0.212 C 
ATOM     37  C   UNL     1      80.654 -30.122 -55.894  1.00  0.00    -0.069 C 
ATOM     38  O   UNL     1      78.866 -28.408 -55.884  1.00  0.00    -0.338 OA
ATOM     39  C   UNL     1      80.513 -30.166 -54.348  1.00  0.00    -0.138 C 
ATOM     40  C   UNL     1      78.372 -28.873 -54.609  1.00  0.00     0.077 C 
ATOM     41  C   UNL     1      79.604 -29.114 -53.772  1.00  0.00    -0.101 C 
ATOM     42  O   UNL     1      80.872 -31.397 -56.465  1.00  0.00    -0.847 OA
ATOM     43  O   UNL     1      81.783 -29.914 -53.743  1.00  0.00    -0.851 OA
ATOM     44  O   UNL     1      80.353 -27.905 -53.799  1.00  0.00    -0.848 OA
BRANCH  40  45
ATOM     45  C   UNL     1      77.397 -27.836 -54.031  1.00  0.00    -0.097 C 
ATOM     46  O   UNL     1      76.539 -27.175 -54.950  1.00  0.00    -0.848 OA
ENDBRANCH  40  45
ENDBRANCH  35  36
ENDBRANCH  27  35
BRANCH  28  47
ATOM     47  C   UNL     1      80.356 -32.905 -60.887  1.00  0.00    -0.097 C 
ATOM     48  O   UNL     1      80.399 -33.070 -62.320  1.00  0.00    -0.848 OA
ENDBRANCH  28  47
ENDBRANCH   1  24
TORSDOF 12
ENDMDL
MODEL 9
REMARK VINA RESULT:    -7.988      2.478     11.101
REMARK INTER + INTRA:         -14.344
REMARK INTER:                 -12.784
REMARK INTRA:                  -1.560
REMARK UNBOUND:                -0.751
REMARK SMILES [C]C(=O)[N-][C]1[C](O[C]2[C]([O-])[C]([C][O-])O[C](O[C]3[C]([C][O-])O[C]([O-])[C]([O-])[C]3[O-])[C]2[O-])O[C]([C][O-])[C]([O-])[C]1O[C]1O[C]([C][O-])[C]([O-])[C]([O-])[C]1[O-]
REMARK SMILES IDX 7 1 8 2 15 3 28 4 14 5 11 6 9 7 29 8 10 9 16 10 17 11 22 12
REMARK SMILES IDX 24 13 21 14 26 15 18 16 23 17 25 18 27 19 19 20 20 21 12 22
REMARK SMILES IDX 13 23 6 24 5 25 30 26 36 27 31 28 34 29 35 30 4 31 2 32 3 33
REMARK SMILES IDX 1 34 37 35 38 36 47 37 39 38 45 39 40 40 43 41 48 42 46 43
REMARK SMILES IDX 44 44 41 45 42 46 32 47 33 48
REMARK H PARENT
ROOT
ATOM      1  O   UNL     1      77.257 -30.093 -59.708  1.00  0.00    -0.338 OA
ENDROOT
BRANCH   1   2
ATOM      2  C   UNL     1      76.110 -29.418 -59.234  1.00  0.00     0.088 C 
ATOM      3  C   UNL     1      73.954 -28.632 -59.992  1.00  0.00     0.216 C 
ATOM      4  C   UNL     1      75.273 -29.256 -60.430  1.00  0.00    -0.021 C 
ATOM      5  O   UNL     1      74.197 -27.321 -59.436  1.00  0.00    -0.338 OA
ATOM      6  C   UNL     1      75.125 -27.292 -58.313  1.00  0.00     0.081 C 
ATOM      7  C   UNL     1      76.410 -28.019 -58.708  1.00  0.00    -0.053 C 
ATOM      8  O   UNL     1      75.149 -30.496 -61.110  1.00  0.00    -0.844 OA
ATOM      9  O   UNL     1      77.026 -27.261 -59.765  1.00  0.00    -0.846 OA
BRANCH   3  10
ATOM     10  O   UNL     1      73.216 -28.597 -61.214  1.00  0.00    -0.334 OA
BRANCH  10  11
ATOM     11  C   UNL     1      71.844 -28.701 -60.960  1.00  0.00     0.123 C 
ATOM     12  C   UNL     1      69.265 -28.788 -62.152  1.00  0.00    -0.003 C 
ATOM     13  C   UNL     1      69.634 -27.575 -61.310  1.00  0.00    -0.115 C 
ATOM     14  O   UNL     1      69.932 -29.945 -61.655  1.00  0.00    -0.380 OA
ATOM     15  C   UNL     1      71.155 -27.419 -61.386  1.00  0.00    -0.094 C 
ATOM     16  C   UNL     1      71.369 -29.893 -61.739  1.00  0.00     0.118 C 
ATOM     17  O   UNL     1      67.930 -29.073 -62.101  1.00  0.00    -0.828 OA
ATOM     18  O   UNL     1      68.921 -26.436 -61.786  1.00  0.00    -0.849 OA
ATOM     19  O   UNL     1      71.685 -26.354 -60.610  1.00  0.00    -0.848 OA
BRANCH  16  20
ATOM     20  C   UNL     1      71.882 -31.205 -61.166  1.00  0.00    -0.093 C 
ATOM     21  O   UNL     1      71.256 -32.292 -61.845  1.00  0.00    -0.848 OA
ENDBRANCH  16  20
ENDBRANCH  10  11
ENDBRANCH   3  10
BRANCH   6  22
ATOM     22  C   UNL     1      75.371 -25.822 -57.978  1.00  0.00    -0.097 C 
ATOM     23  O   UNL     1      75.226 -25.541 -56.573  1.00  0.00    -0.848 OA
ENDBRANCH   6  22
ENDBRANCH   1   2
BRANCH   1  24
ATOM     24  C   UNL     1      78.275 -30.427 -58.789  1.00  0.00     0.215 C 
ATOM     25  C   UNL     1      79.643 -30.030 -59.378  1.00  0.00    -0.013 C 
ATOM     26  O   UNL     1      78.087 -29.871 -57.494  1.00  0.00    -0.338 OA
ATOM     27  C   UNL     1      80.739 -30.473 -58.399  1.00  0.00     0.087 C 
ATOM     28  C   UNL     1      79.030 -30.407 -56.553  1.00  0.00     0.081 C 
ATOM     29  C   UNL     1      80.451 -29.988 -56.957  1.00  0.00    -0.053 C 
ATOM     30  O   UNL     1      81.314 -30.551 -55.961  1.00  0.00    -0.846 OA
BRANCH  25  31
ATOM     31  N   UNL     1      79.956 -30.475 -60.725  1.00  0.00    -0.641 NA
BRANCH  31  32
ATOM     32  C   UNL     1      79.663 -31.673 -61.260  1.00  0.00     0.061 C 
ATOM     33  O   UNL     1      80.045 -32.742 -60.775  1.00  0.00    -0.320 OA
ATOM     34  C   UNL     1      78.776 -31.658 -62.463  1.00  0.00     0.051 C 
ENDBRANCH  31  32
ENDBRANCH  25  31
BRANCH  27  35
ATOM     35  O   UNL     1      81.900 -29.894 -58.980  1.00  0.00    -0.338 OA
BRANCH  35  36
ATOM     36  C   UNL     1      83.056 -30.776 -59.214  1.00  0.00     0.212 C 
ATOM     37  C   UNL     1      83.796 -30.422 -60.517  1.00  0.00    -0.069 C 
ATOM     38  O   UNL     1      83.874 -30.584 -58.047  1.00  0.00    -0.338 OA
ATOM     39  C   UNL     1      85.306 -30.782 -60.511  1.00  0.00    -0.138 C 
ATOM     40  C   UNL     1      85.034 -31.443 -58.100  1.00  0.00     0.077 C 
ATOM     41  C   UNL     1      85.933 -30.828 -59.143  1.00  0.00    -0.101 C 
ATOM     42  O   UNL     1      83.087 -31.030 -61.579  1.00  0.00    -0.847 OA
ATOM     43  O   UNL     1      86.041 -29.776 -61.210  1.00  0.00    -0.851 OA
ATOM     44  O   UNL     1      86.123 -29.471 -58.764  1.00  0.00    -0.848 OA
BRANCH  40  45
ATOM     45  C   UNL     1      85.656 -31.548 -56.700  1.00  0.00    -0.097 C 
ATOM     46  O   UNL     1      84.778 -31.407 -55.591  1.00  0.00    -0.848 OA
ENDBRANCH  40  45
ENDBRANCH  35  36
ENDBRANCH  27  35
BRANCH  28  47
ATOM     47  C   UNL     1      78.571 -29.906 -55.203  1.00  0.00    -0.097 C 
ATOM     48  O   UNL     1      77.239 -30.386 -54.919  1.00  0.00    -0.848 OA
ENDBRANCH  28  47
ENDBRANCH   1  24
TORSDOF 12
ENDMDL
MODEL 10
REMARK VINA RESULT:    -7.914      2.394      5.912
REMARK INTER + INTRA:         -14.217
REMARK INTER:                 -12.874
REMARK INTRA:                  -1.344
REMARK UNBOUND:                -0.751
REMARK SMILES [C]C(=O)[N-][C]1[C](O[C]2[C]([O-])[C]([C][O-])O[C](O[C]3[C]([C][O-])O[C]([O-])[C]([O-])[C]3[O-])[C]2[O-])O[C]([C][O-])[C]([O-])[C]1O[C]1O[C]([C][O-])[C]([O-])[C]([O-])[C]1[O-]
REMARK SMILES IDX 7 1 8 2 15 3 28 4 14 5 11 6 9 7 29 8 10 9 16 10 17 11 22 12
REMARK SMILES IDX 24 13 21 14 26 15 18 16 23 17 25 18 27 19 19 20 20 21 12 22
REMARK SMILES IDX 13 23 6 24 5 25 30 26 36 27 31 28 34 29 35 30 4 31 2 32 3 33
REMARK SMILES IDX 1 34 37 35 38 36 47 37 39 38 45 39 40 40 43 41 48 42 46 43
REMARK SMILES IDX 44 44 41 45 42 46 32 47 33 48
REMARK H PARENT
ROOT
ATOM      1  O   UNL     1      77.830 -29.816 -57.265  1.00  0.00    -0.338 OA
ENDROOT
BRANCH   1   2
ATOM      2  C   UNL     1      79.158 -29.693 -56.799  1.00  0.00     0.088 C 
ATOM      3  C   UNL     1      81.113 -31.038 -56.339  1.00  0.00     0.216 C 
ATOM      4  C   UNL     1      79.641 -31.079 -56.730  1.00  0.00    -0.021 C 
ATOM      5  O   UNL     1      81.252 -30.450 -55.027  1.00  0.00    -0.338 OA
ATOM      6  C   UNL     1      80.694 -29.111 -54.890  1.00  0.00     0.081 C 
ATOM      7  C   UNL     1      79.249 -29.119 -55.389  1.00  0.00    -0.053 C 
ATOM      8  O   UNL     1      79.366 -31.752 -57.949  1.00  0.00    -0.844 OA
ATOM      9  O   UNL     1      78.494 -29.967 -54.506  1.00  0.00    -0.846 OA
BRANCH   3  10
ATOM     10  O   UNL     1      81.475 -32.419 -56.379  1.00  0.00    -0.334 OA
BRANCH  10  11
ATOM     11  C   UNL     1      82.694 -32.586 -57.044  1.00  0.00     0.123 C 
ATOM     12  C   UNL     1      84.848 -31.235 -58.315  1.00  0.00    -0.003 C 
ATOM     13  C   UNL     1      83.920 -32.086 -59.170  1.00  0.00    -0.115 C 
ATOM     14  O   UNL     1      84.939 -31.784 -57.003  1.00  0.00    -0.380 OA
ATOM     15  C   UNL     1      82.556 -32.105 -58.475  1.00  0.00    -0.094 C 
ATOM     16  C   UNL     1      83.702 -31.791 -56.266  1.00  0.00     0.118 C 
ATOM     17  O   UNL     1      86.125 -31.204 -58.799  1.00  0.00    -0.828 OA
ATOM     18  O   UNL     1      83.879 -31.555 -60.492  1.00  0.00    -0.849 OA
ATOM     19  O   UNL     1      81.571 -32.903 -59.116  1.00  0.00    -0.848 OA
BRANCH  16  20
ATOM     20  C   UNL     1      84.010 -32.407 -54.911  1.00  0.00    -0.093 C 
ATOM     21  O   UNL     1      85.362 -32.120 -54.559  1.00  0.00    -0.848 OA
ENDBRANCH  16  20
ENDBRANCH  10  11
ENDBRANCH   3  10
BRANCH   6  22
ATOM     22  C   UNL     1      80.794 -28.736 -53.413  1.00  0.00    -0.097 C 
ATOM     23  O   UNL     1      80.495 -27.348 -53.171  1.00  0.00    -0.848 OA
ENDBRANCH   6  22
ENDBRANCH   1   2
BRANCH   1  24
ATOM     24  C   UNL     1      77.232 -28.712 -57.909  1.00  0.00     0.215 C 
ATOM     25  C   UNL     1      76.511 -29.195 -59.183  1.00  0.00    -0.013 C 
ATOM     26  O   UNL     1      76.360 -27.961 -57.073  1.00  0.00    -0.338 OA
ATOM     27  C   UNL     1      75.935 -27.971 -59.908  1.00  0.00     0.087 C 
ATOM     28  C   UNL     1      75.945 -26.743 -57.711  1.00  0.00     0.081 C 
ATOM     29  C   UNL     1      75.107 -27.076 -58.953  1.00  0.00    -0.053 C 
ATOM     30  O   UNL     1      74.729 -25.811 -59.510  1.00  0.00    -0.846 OA
BRANCH  25  31
ATOM     31  N   UNL     1      77.258 -30.028 -60.110  1.00  0.00    -0.641 NA
BRANCH  31  32
ATOM     32  C   UNL     1      78.383 -29.688 -60.763  1.00  0.00     0.061 C 
ATOM     33  O   UNL     1      79.481 -29.586 -60.209  1.00  0.00    -0.320 OA
ATOM     34  C   UNL     1      78.256 -29.498 -62.240  1.00  0.00     0.051 C 
ENDBRANCH  31  32
ENDBRANCH  25  31
BRANCH  27  35
ATOM     35  O   UNL     1      75.168 -28.578 -60.940  1.00  0.00    -0.338 OA
BRANCH  35  36
ATOM     36  C   UNL     1      74.084 -29.489 -60.535  1.00  0.00     0.212 C 
ATOM     37  C   UNL     1      72.694 -28.899 -60.839  1.00  0.00    -0.069 C 
ATOM     38  O   UNL     1      74.349 -30.688 -61.282  1.00  0.00    -0.338 OA
ATOM     39  C   UNL     1      71.592 -29.963 -61.092  1.00  0.00    -0.138 C 
ATOM     40  C   UNL     1      73.390 -31.714 -60.941  1.00  0.00     0.077 C 
ATOM     41  C   UNL     1      72.103 -31.285 -61.598  1.00  0.00    -0.101 C 
ATOM     42  O   UNL     1      72.375 -28.013 -59.785  1.00  0.00    -0.847 OA
ATOM     43  O   UNL     1      70.708 -29.503 -62.116  1.00  0.00    -0.851 OA
ATOM     44  O   UNL     1      72.400 -31.079 -62.973  1.00  0.00    -0.848 OA
BRANCH  40  45
ATOM     45  C   UNL     1      73.920 -33.080 -61.400  1.00  0.00    -0.097 C 
ATOM     46  O   UNL     1      72.971 -33.998 -61.926  1.00  0.00    -0.848 OA
ENDBRANCH  40  45
ENDBRANCH  35  36
ENDBRANCH  27  35
BRANCH  28  47
ATOM     47  C   UNL     1      75.223 -25.961 -56.638  1.00  0.00    -0.097 C 
ATOM     48  O   UNL     1      76.038 -25.873 -55.450  1.00  0.00    -0.848 OA
ENDBRANCH  28  47
ENDBRANCH   1  24
TORSDOF 12
ENDMDL
MODEL 11
REMARK VINA RESULT:    -7.887      1.878      3.832
REMARK INTER + INTRA:         -14.172
REMARK INTER:                 -13.148
REMARK INTRA:                  -1.024
REMARK UNBOUND:                -0.751
REMARK SMILES [C]C(=O)[N-][C]1[C](O[C]2[C]([O-])[C]([C][O-])O[C](O[C]3[C]([C][O-])O[C]([O-])[C]([O-])[C]3[O-])[C]2[O-])O[C]([C][O-])[C]([O-])[C]1O[C]1O[C]([C][O-])[C]([O-])[C]([O-])[C]1[O-]
REMARK SMILES IDX 7 1 8 2 15 3 28 4 14 5 11 6 9 7 29 8 10 9 16 10 17 11 22 12
REMARK SMILES IDX 24 13 21 14 26 15 18 16 23 17 25 18 27 19 19 20 20 21 12 22
REMARK SMILES IDX 13 23 6 24 5 25 30 26 36 27 31 28 34 29 35 30 4 31 2 32 3 33
REMARK SMILES IDX 1 34 37 35 38 36 47 37 39 38 45 39 40 40 43 41 48 42 46 43
REMARK SMILES IDX 44 44 41 45 42 46 32 47 33 48
REMARK H PARENT
ROOT
ATOM      1  O   UNL     1      76.280 -30.295 -60.691  1.00  0.00    -0.338 OA
ENDROOT
BRANCH   1   2
ATOM      2  C   UNL     1      76.786 -30.580 -59.403  1.00  0.00     0.088 C 
ATOM      3  C   UNL     1      78.847 -30.504 -58.143  1.00  0.00     0.216 C 
ATOM      4  C   UNL     1      78.228 -30.329 -59.524  1.00  0.00    -0.021 C 
ATOM      5  O   UNL     1      78.667 -31.866 -57.698  1.00  0.00    -0.338 OA
ATOM      6  C   UNL     1      77.283 -32.320 -57.653  1.00  0.00     0.081 C 
ATOM      7  C   UNL     1      76.621 -32.041 -59.002  1.00  0.00    -0.053 C 
ATOM      8  O   UNL     1      78.454 -29.061 -60.122  1.00  0.00    -0.844 OA
ATOM      9  O   UNL     1      77.285 -32.858 -59.983  1.00  0.00    -0.846 OA
BRANCH   3  10
ATOM     10  O   UNL     1      80.214 -30.165 -58.379  1.00  0.00    -0.334 OA
BRANCH  10  11
ATOM     11  C   UNL     1      80.800 -29.655 -57.216  1.00  0.00     0.123 C 
ATOM     12  C   UNL     1      80.920 -29.889 -54.385  1.00  0.00    -0.003 C 
ATOM     13  C   UNL     1      80.301 -28.634 -54.984  1.00  0.00    -0.115 C 
ATOM     14  O   UNL     1      81.935 -30.391 -55.251  1.00  0.00    -0.380 OA
ATOM     15  C   UNL     1      79.729 -29.020 -56.350  1.00  0.00    -0.094 C 
ATOM     16  C   UNL     1      81.464 -30.821 -56.543  1.00  0.00     0.118 C 
ATOM     17  O   UNL     1      81.532 -29.651 -53.187  1.00  0.00    -0.828 OA
ATOM     18  O   UNL     1      79.325 -28.115 -54.084  1.00  0.00    -0.849 OA
ATOM     19  O   UNL     1      79.151 -27.947 -57.080  1.00  0.00    -0.848 OA
BRANCH  16  20
ATOM     20  C   UNL     1      82.684 -31.315 -57.303  1.00  0.00    -0.093 C 
ATOM     21  O   UNL     1      83.768 -31.491 -56.393  1.00  0.00    -0.848 OA
ENDBRANCH  16  20
ENDBRANCH  10  11
ENDBRANCH   3  10
BRANCH   6  22
ATOM     22  C   UNL     1      77.314 -33.810 -57.320  1.00  0.00    -0.097 C 
ATOM     23  O   UNL     1      77.389 -34.062 -55.904  1.00  0.00    -0.848 OA
ENDBRANCH   6  22
ENDBRANCH   1   2
BRANCH   1  24
ATOM     24  C   UNL     1      75.353 -29.241 -60.838  1.00  0.00     0.215 C 
ATOM     25  C   UNL     1      73.923 -29.815 -60.833  1.00  0.00    -0.013 C 
ATOM     26  O   UNL     1      75.500 -28.207 -59.873  1.00  0.00    -0.338 OA
ATOM     27  C   UNL     1      72.937 -28.664 -61.072  1.00  0.00     0.087 C 
ATOM     28  C   UNL     1      74.678 -27.074 -60.191  1.00  0.00     0.081 C 
ATOM     29  C   UNL     1      73.198 -27.477 -60.113  1.00  0.00    -0.053 C 
ATOM     30  O   UNL     1      72.461 -26.289 -60.429  1.00  0.00    -0.846 OA
BRANCH  25  31
ATOM     31  N   UNL     1      73.635 -30.923 -61.728  1.00  0.00    -0.641 NA
BRANCH  31  32
ATOM     32  C   UNL     1      73.270 -32.167 -61.370  1.00  0.00     0.061 C 
ATOM     33  O   UNL     1      73.809 -32.791 -60.453  1.00  0.00    -0.320 OA
ATOM     34  C   UNL     1      72.109 -32.751 -62.109  1.00  0.00     0.051 C 
ENDBRANCH  31  32
ENDBRANCH  25  31
BRANCH  27  35
ATOM     35  O   UNL     1      71.685 -29.306 -60.868  1.00  0.00    -0.338 OA
BRANCH  35  36
ATOM     36  C   UNL     1      70.589 -28.969 -61.793  1.00  0.00     0.212 C 
ATOM     37  C   UNL     1      69.297 -29.735 -61.457  1.00  0.00    -0.069 C 
ATOM     38  O   UNL     1      70.441 -27.546 -61.644  1.00  0.00    -0.338 OA
ATOM     39  C   UNL     1      67.994 -29.002 -61.876  1.00  0.00    -0.138 C 
ATOM     40  C   UNL     1      69.429 -27.050 -62.548  1.00  0.00     0.077 C 
ATOM     41  C   UNL     1      68.117 -27.504 -61.959  1.00  0.00    -0.101 C 
ATOM     42  O   UNL     1      69.413 -31.023 -62.026  1.00  0.00    -0.847 OA
ATOM     43  O   UNL     1      66.981 -29.225 -60.894  1.00  0.00    -0.851 OA
ATOM     44  O   UNL     1      68.096 -27.044 -60.614  1.00  0.00    -0.848 OA
BRANCH  40  45
ATOM     45  C   UNL     1      69.575 -25.528 -62.690  1.00  0.00    -0.097 C 
ATOM     46  O   UNL     1      69.819 -25.021 -63.995  1.00  0.00    -0.848 OA
ENDBRANCH  40  45
ENDBRANCH  35  36
ENDBRANCH  27  35
BRANCH  28  47
ATOM     47  C   UNL     1      75.102 -25.992 -59.225  1.00  0.00    -0.097 C 
ATOM     48  O   UNL     1      75.184 -26.524 -57.885  1.00  0.00    -0.848 OA
ENDBRANCH  28  47
ENDBRANCH   1  24
TORSDOF 12
ENDMDL
MODEL 12
REMARK VINA RESULT:    -7.790      1.895      3.420
REMARK INTER + INTRA:         -14.006
REMARK INTER:                 -13.193
REMARK INTRA:                  -0.813
REMARK UNBOUND:                -0.751
REMARK SMILES [C]C(=O)[N-][C]1[C](O[C]2[C]([O-])[C]([C][O-])O[C](O[C]3[C]([C][O-])O[C]([O-])[C]([O-])[C]3[O-])[C]2[O-])O[C]([C][O-])[C]([O-])[C]1O[C]1O[C]([C][O-])[C]([O-])[C]([O-])[C]1[O-]
REMARK SMILES IDX 7 1 8 2 15 3 28 4 14 5 11 6 9 7 29 8 10 9 16 10 17 11 22 12
REMARK SMILES IDX 24 13 21 14 26 15 18 16 23 17 25 18 27 19 19 20 20 21 12 22
REMARK SMILES IDX 13 23 6 24 5 25 30 26 36 27 31 28 34 29 35 30 4 31 2 32 3 33
REMARK SMILES IDX 1 34 37 35 38 36 47 37 39 38 45 39 40 40 43 41 48 42 46 43
REMARK SMILES IDX 44 44 41 45 42 46 32 47 33 48
REMARK H PARENT
ROOT
ATOM      1  O   UNL     1      75.270 -30.588 -59.508  1.00  0.00    -0.338 OA
ENDROOT
BRANCH   1   2
ATOM      2  C   UNL     1      76.503 -30.970 -60.081  1.00  0.00     0.088 C 
ATOM      3  C   UNL     1      78.725 -31.677 -59.445  1.00  0.00     0.216 C 
ATOM      4  C   UNL     1      77.392 -31.152 -58.926  1.00  0.00    -0.021 C 
ATOM      5  O   UNL     1      79.326 -30.698 -60.322  1.00  0.00    -0.338 OA
ATOM      6  C   UNL     1      78.503 -30.304 -61.458  1.00  0.00     0.081 C 
ATOM      7  C   UNL     1      77.123 -29.884 -60.954  1.00  0.00    -0.053 C 
ATOM      8  O   UNL     1      76.766 -31.973 -57.953  1.00  0.00    -0.844 OA
ATOM      9  O   UNL     1      77.299 -28.704 -60.150  1.00  0.00    -0.846 OA
BRANCH   3  10
ATOM     10  O   UNL     1      79.461 -31.878 -58.237  1.00  0.00    -0.334 OA
BRANCH  10  11
ATOM     11  C   UNL     1      80.790 -31.472 -58.401  1.00  0.00     0.123 C 
ATOM     12  C   UNL     1      82.568 -29.949 -60.013  1.00  0.00    -0.003 C 
ATOM     13  C   UNL     1      82.716 -31.464 -60.002  1.00  0.00    -0.115 C 
ATOM     14  O   UNL     1      82.083 -29.499 -58.750  1.00  0.00    -0.380 OA
ATOM     15  C   UNL     1      81.336 -32.050 -59.692  1.00  0.00    -0.094 C 
ATOM     16  C   UNL     1      80.766 -29.971 -58.409  1.00  0.00     0.118 C 
ATOM     17  O   UNL     1      83.759 -29.308 -60.208  1.00  0.00    -0.828 OA
ATOM     18  O   UNL     1      83.250 -31.894 -61.252  1.00  0.00    -0.849 OA
ATOM     19  O   UNL     1      81.298 -33.466 -59.593  1.00  0.00    -0.848 OA
BRANCH  16  20
ATOM     20  C   UNL     1      80.438 -29.387 -57.045  1.00  0.00    -0.093 C 
ATOM     21  O   UNL     1      79.189 -28.701 -57.114  1.00  0.00    -0.848 OA
ENDBRANCH  16  20
ENDBRANCH  10  11
ENDBRANCH   3  10
BRANCH   6  22
ATOM     22  C   UNL     1      79.234 -29.162 -62.161  1.00  0.00    -0.097 C 
ATOM     23  O   UNL     1      78.975 -29.125 -63.578  1.00  0.00    -0.848 OA
ENDBRANCH   6  22
ENDBRANCH   1   2
BRANCH   1  24
ATOM     24  C   UNL     1      74.075 -30.955 -60.161  1.00  0.00     0.215 C 
ATOM     25  C   UNL     1      73.381 -29.690 -60.704  1.00  0.00    -0.013 C 
ATOM     26  O   UNL     1      74.253 -31.927 -61.184  1.00  0.00    -0.338 OA
ATOM     27  C   UNL     1      72.048 -30.103 -61.341  1.00  0.00     0.087 C 
ATOM     28  C   UNL     1      72.992 -32.413 -61.670  1.00  0.00     0.081 C 
ATOM     29  C   UNL     1      72.229 -31.266 -62.348  1.00  0.00    -0.053 C 
ATOM     30  O   UNL     1      71.001 -31.844 -62.809  1.00  0.00    -0.846 OA
BRANCH  25  31
ATOM     31  N   UNL     1      73.183 -28.580 -59.787  1.00  0.00    -0.641 NA
BRANCH  31  32
ATOM     32  C   UNL     1      73.958 -27.488 -59.673  1.00  0.00     0.061 C 
ATOM     33  O   UNL     1      74.040 -26.624 -60.549  1.00  0.00    -0.320 OA
ATOM     34  C   UNL     1      74.684 -27.328 -58.376  1.00  0.00     0.051 C 
ENDBRANCH  31  32
ENDBRANCH  25  31
BRANCH  27  35
ATOM     35  O   UNL     1      71.620 -28.885 -61.937  1.00  0.00    -0.338 OA
BRANCH  35  36
ATOM     36  C   UNL     1      70.357 -28.299 -61.456  1.00  0.00     0.212 C 
ATOM     37  C   UNL     1      70.101 -26.908 -62.065  1.00  0.00    -0.069 C 
ATOM     38  O   UNL     1      69.363 -29.262 -61.846  1.00  0.00    -0.338 OA
ATOM     39  C   UNL     1      68.600 -26.529 -62.180  1.00  0.00    -0.138 C 
ATOM     40  C   UNL     1      68.058 -28.851 -61.382  1.00  0.00     0.077 C 
ATOM     41  C   UNL     1      67.664 -27.704 -62.278  1.00  0.00    -0.101 C 
ATOM     42  O   UNL     1      70.849 -25.976 -61.309  1.00  0.00    -0.847 OA
ATOM     43  O   UNL     1      68.382 -25.795 -63.387  1.00  0.00    -0.851 OA
ATOM     44  O   UNL     1      67.780 -28.176 -63.614  1.00  0.00    -0.848 OA
BRANCH  40  45
ATOM     45  C   UNL     1      67.102 -30.053 -61.420  1.00  0.00    -0.097 C 
ATOM     46  O   UNL     1      67.513 -31.181 -62.180  1.00  0.00    -0.848 OA
ENDBRANCH  40  45
ENDBRANCH  35  36
ENDBRANCH  27  35
BRANCH  28  47
ATOM     47  C   UNL     1      73.336 -33.577 -62.570  1.00  0.00    -0.097 C 
ATOM     48  O   UNL     1      74.762 -33.640 -62.782  1.00  0.00    -0.848 OA
ENDBRANCH  28  47
ENDBRANCH   1  24
TORSDOF 12
ENDMDL
MODEL 13
REMARK VINA RESULT:    -7.761      1.819      3.590
REMARK INTER + INTRA:         -13.956
REMARK INTER:                 -13.074
REMARK INTRA:                  -0.882
REMARK UNBOUND:                -0.751
REMARK SMILES [C]C(=O)[N-][C]1[C](O[C]2[C]([O-])[C]([C][O-])O[C](O[C]3[C]([C][O-])O[C]([O-])[C]([O-])[C]3[O-])[C]2[O-])O[C]([C][O-])[C]([O-])[C]1O[C]1O[C]([C][O-])[C]([O-])[C]([O-])[C]1[O-]
REMARK SMILES IDX 7 1 8 2 15 3 28 4 14 5 11 6 9 7 29 8 10 9 16 10 17 11 22 12
REMARK SMILES IDX 24 13 21 14 26 15 18 16 23 17 25 18 27 19 19 20 20 21 12 22
REMARK SMILES IDX 13 23 6 24 5 25 30 26 36 27 31 28 34 29 35 30 4 31 2 32 3 33
REMARK SMILES IDX 1 34 37 35 38 36 47 37 39 38 45 39 40 40 43 41 48 42 46 43
REMARK SMILES IDX 44 44 41 45 42 46 32 47 33 48
REMARK H PARENT
ROOT
ATOM      1  O   UNL     1      76.716 -28.913 -61.119  1.00  0.00    -0.338 OA
ENDROOT
BRANCH   1   2
ATOM      2  C   UNL     1      77.667 -28.694 -60.098  1.00  0.00     0.088 C 
ATOM      3  C   UNL     1      79.694 -29.648 -59.192  1.00  0.00     0.216 C 
ATOM      4  C   UNL     1      78.562 -29.855 -60.190  1.00  0.00    -0.021 C 
ATOM      5  O   UNL     1      79.159 -29.603 -57.851  1.00  0.00    -0.338 OA
ATOM      6  C   UNL     1      78.145 -28.580 -57.628  1.00  0.00     0.081 C 
ATOM      7  C   UNL     1      77.062 -28.709 -58.699  1.00  0.00    -0.053 C 
ATOM      8  O   UNL     1      78.979 -30.043 -61.534  1.00  0.00    -0.844 OA
ATOM      9  O   UNL     1      76.411 -29.977 -58.501  1.00  0.00    -0.846 OA
BRANCH   3  10
ATOM     10  O   UNL     1      80.520 -30.789 -59.430  1.00  0.00    -0.334 OA
BRANCH  10  11
ATOM     11  C   UNL     1      81.673 -30.733 -58.641  1.00  0.00     0.123 C 
ATOM     12  C   UNL     1      84.168 -31.977 -58.087  1.00  0.00    -0.003 C 
ATOM     13  C   UNL     1      83.079 -32.030 -57.024  1.00  0.00    -0.115 C 
ATOM     14  O   UNL     1      84.049 -30.777 -58.846  1.00  0.00    -0.380 OA
ATOM     15  C   UNL     1      81.734 -31.960 -57.752  1.00  0.00    -0.094 C 
ATOM     16  C   UNL     1      82.827 -30.661 -59.599  1.00  0.00     0.118 C 
ATOM     17  O   UNL     1      85.424 -31.959 -57.550  1.00  0.00    -0.828 OA
ATOM     18  O   UNL     1      83.242 -33.210 -56.241  1.00  0.00    -0.849 OA
ATOM     19  O   UNL     1      80.596 -31.947 -56.902  1.00  0.00    -0.848 OA
BRANCH  16  20
ATOM     20  C   UNL     1      82.895 -29.329 -60.328  1.00  0.00    -0.093 C 
ATOM     21  O   UNL     1      84.162 -29.208 -60.971  1.00  0.00    -0.848 OA
ENDBRANCH  16  20
ENDBRANCH  10  11
ENDBRANCH   3  10
BRANCH   6  22
ATOM     22  C   UNL     1      77.596 -28.797 -56.220  1.00  0.00    -0.097 C 
ATOM     23  O   UNL     1      77.799 -27.658 -55.363  1.00  0.00    -0.848 OA
ENDBRANCH   6  22
ENDBRANCH   1   2
BRANCH   1  24
ATOM     24  C   UNL     1      75.664 -29.824 -60.882  1.00  0.00     0.215 C 
ATOM     25  C   UNL     1      74.349 -29.236 -61.429  1.00  0.00    -0.013 C 
ATOM     26  O   UNL     1      75.904 -31.126 -61.399  1.00  0.00    -0.338 OA
ATOM     27  C   UNL     1      73.207 -30.205 -61.092  1.00  0.00     0.087 C 
ATOM     28  C   UNL     1      74.905 -32.058 -60.954  1.00  0.00     0.081 C 
ATOM     29  C   UNL     1      73.539 -31.654 -61.526  1.00  0.00    -0.053 C 
ATOM     30  O   UNL     1      72.617 -32.640 -61.045  1.00  0.00    -0.846 OA
BRANCH  25  31
ATOM     31  N   UNL     1      73.996 -27.882 -61.035  1.00  0.00    -0.641 NA
BRANCH  31  32
ATOM     32  C   UNL     1      74.088 -27.358 -59.801  1.00  0.00     0.061 C 
ATOM     33  O   UNL     1      73.821 -27.991 -58.777  1.00  0.00    -0.320 OA
ATOM     34  C   UNL     1      74.605 -25.957 -59.716  1.00  0.00     0.051 C 
ENDBRANCH  31  32
ENDBRANCH  25  31
BRANCH  27  35
ATOM     35  O   UNL     1      72.117 -29.627 -61.798  1.00  0.00    -0.338 OA
BRANCH  35  36
ATOM     36  C   UNL     1      70.776 -29.756 -61.201  1.00  0.00     0.212 C 
ATOM     37  C   UNL     1      70.194 -28.390 -60.795  1.00  0.00    -0.069 C 
ATOM     38  O   UNL     1      70.005 -30.400 -62.230  1.00  0.00    -0.338 OA
ATOM     39  C   UNL     1      68.643 -28.328 -60.811  1.00  0.00    -0.138 C 
ATOM     40  C   UNL     1      68.661 -30.654 -61.764  1.00  0.00     0.077 C 
ATOM     41  C   UNL     1      67.987 -29.305 -61.748  1.00  0.00    -0.101 C 
ATOM     42  O   UNL     1      70.747 -28.056 -59.538  1.00  0.00    -0.847 OA
ATOM     43  O   UNL     1      68.219 -27.045 -61.275  1.00  0.00    -0.851 OA
ATOM     44  O   UNL     1      68.150 -28.756 -63.049  1.00  0.00    -0.848 OA
BRANCH  40  45
ATOM     45  C   UNL     1      67.994 -31.694 -62.677  1.00  0.00    -0.097 C 
ATOM     46  O   UNL     1      66.650 -32.047 -62.379  1.00  0.00    -0.848 OA
ENDBRANCH  40  45
ENDBRANCH  35  36
ENDBRANCH  27  35
BRANCH  28  47
ATOM     47  C   UNL     1      75.409 -33.415 -61.387  1.00  0.00    -0.097 C 
ATOM     48  O   UNL     1      76.851 -33.421 -61.434  1.00  0.00    -0.848 OA
ENDBRANCH  28  47
ENDBRANCH   1  24
TORSDOF 12
ENDMDL
MODEL 14
REMARK VINA RESULT:    -7.684      2.134      3.015
REMARK INTER + INTRA:         -13.826
REMARK INTER:                 -11.828
REMARK INTRA:                  -1.999
REMARK UNBOUND:                -0.751
REMARK SMILES [C]C(=O)[N-][C]1[C](O[C]2[C]([O-])[C]([C][O-])O[C](O[C]3[C]([C][O-])O[C]([O-])[C]([O-])[C]3[O-])[C]2[O-])O[C]([C][O-])[C]([O-])[C]1O[C]1O[C]([C][O-])[C]([O-])[C]([O-])[C]1[O-]
REMARK SMILES IDX 7 1 8 2 15 3 28 4 14 5 11 6 9 7 29 8 10 9 16 10 17 11 22 12
REMARK SMILES IDX 24 13 21 14 26 15 18 16 23 17 25 18 27 19 19 20 20 21 12 22
REMARK SMILES IDX 13 23 6 24 5 25 30 26 36 27 31 28 34 29 35 30 4 31 2 32 3 33
REMARK SMILES IDX 1 34 37 35 38 36 47 37 39 38 45 39 40 40 43 41 48 42 46 43
REMARK SMILES IDX 44 44 41 45 42 46 32 47 33 48
REMARK H PARENT
ROOT
ATOM      1  O   UNL     1      75.316 -30.562 -59.481  1.00  0.00    -0.338 OA
ENDROOT
BRANCH   1   2
ATOM      2  C   UNL     1      76.550 -31.023 -59.992  1.00  0.00     0.088 C 
ATOM      3  C   UNL     1      78.732 -31.746 -59.247  1.00  0.00     0.216 C 
ATOM      4  C   UNL     1      77.405 -31.145 -58.804  1.00  0.00    -0.021 C 
ATOM      5  O   UNL     1      79.385 -30.853 -60.177  1.00  0.00    -0.338 OA
ATOM      6  C   UNL     1      78.603 -30.520 -61.360  1.00  0.00     0.081 C 
ATOM      7  C   UNL     1      77.225 -30.023 -60.925  1.00  0.00    -0.053 C 
ATOM      8  O   UNL     1      76.729 -31.873 -57.790  1.00  0.00    -0.844 OA
ATOM      9  O   UNL     1      77.419 -28.792 -60.205  1.00  0.00    -0.846 OA
BRANCH   3  10
ATOM     10  O   UNL     1      79.432 -31.879 -58.009  1.00  0.00    -0.334 OA
BRANCH  10  11
ATOM     11  C   UNL     1      80.807 -32.001 -58.235  1.00  0.00     0.123 C 
ATOM     12  C   UNL     1      83.214 -33.193 -57.303  1.00  0.00    -0.003 C 
ATOM     13  C   UNL     1      83.061 -31.682 -57.190  1.00  0.00    -0.115 C 
ATOM     14  O   UNL     1      82.499 -33.669 -58.440  1.00  0.00    -0.380 OA
ATOM     15  C   UNL     1      81.564 -31.388 -57.072  1.00  0.00    -0.094 C 
ATOM     16  C   UNL     1      81.073 -33.471 -58.380  1.00  0.00     0.118 C 
ATOM     17  O   UNL     1      84.512 -33.575 -57.488  1.00  0.00    -0.828 OA
ATOM     18  O   UNL     1      83.823 -31.214 -56.079  1.00  0.00    -0.849 OA
ATOM     19  O   UNL     1      81.230 -30.009 -57.007  1.00  0.00    -0.848 OA
BRANCH  16  20
ATOM     20  C   UNL     1      80.505 -34.040 -59.670  1.00  0.00    -0.093 C 
ATOM     21  O   UNL     1      81.287 -33.583 -60.772  1.00  0.00    -0.848 OA
ENDBRANCH  16  20
ENDBRANCH  10  11
ENDBRANCH   3  10
BRANCH   6  22
ATOM     22  C   UNL     1      79.387 -29.455 -62.125  1.00  0.00    -0.097 C 
ATOM     23  O   UNL     1      78.799 -29.143 -63.403  1.00  0.00    -0.848 OA
ENDBRANCH   6  22
ENDBRANCH   1   2
BRANCH   1  24
ATOM     24  C   UNL     1      74.126 -30.940 -60.139  1.00  0.00     0.215 C 
ATOM     25  C   UNL     1      73.429 -29.681 -60.691  1.00  0.00    -0.013 C 
ATOM     26  O   UNL     1      74.315 -31.916 -61.155  1.00  0.00    -0.338 OA
ATOM     27  C   UNL     1      72.101 -30.105 -61.333  1.00  0.00     0.087 C 
ATOM     28  C   UNL     1      73.059 -32.411 -61.645  1.00  0.00     0.081 C 
ATOM     29  C   UNL     1      72.293 -31.272 -62.333  1.00  0.00    -0.053 C 
ATOM     30  O   UNL     1      71.071 -31.859 -62.798  1.00  0.00    -0.846 OA
BRANCH  25  31
ATOM     31  N   UNL     1      73.219 -28.568 -59.781  1.00  0.00    -0.641 NA
BRANCH  31  32
ATOM     32  C   UNL     1      73.999 -27.480 -59.655  1.00  0.00     0.061 C 
ATOM     33  O   UNL     1      74.053 -26.586 -60.503  1.00  0.00    -0.320 OA
ATOM     34  C   UNL     1      74.768 -27.366 -58.378  1.00  0.00     0.051 C 
ENDBRANCH  31  32
ENDBRANCH  25  31
BRANCH  27  35
ATOM     35  O   UNL     1      71.669 -28.893 -61.938  1.00  0.00    -0.338 OA
BRANCH  35  36
ATOM     36  C   UNL     1      70.406 -28.306 -61.460  1.00  0.00     0.212 C 
ATOM     37  C   UNL     1      70.155 -26.912 -62.064  1.00  0.00    -0.069 C 
ATOM     38  O   UNL     1      69.411 -29.265 -61.857  1.00  0.00    -0.338 OA
ATOM     39  C   UNL     1      68.655 -26.530 -62.183  1.00  0.00    -0.138 C 
ATOM     40  C   UNL     1      68.105 -28.854 -61.396  1.00  0.00     0.077 C 
ATOM     41  C   UNL     1      67.717 -27.702 -62.289  1.00  0.00    -0.101 C 
ATOM     42  O   UNL     1      70.902 -25.985 -61.302  1.00  0.00    -0.847 OA
ATOM     43  O   UNL     1      68.443 -25.791 -63.388  1.00  0.00    -0.851 OA
ATOM     44  O   UNL     1      67.838 -28.169 -63.627  1.00  0.00    -0.848 OA
BRANCH  40  45
ATOM     45  C   UNL     1      67.147 -30.053 -61.443  1.00  0.00    -0.097 C 
ATOM     46  O   UNL     1      67.604 -31.220 -62.114  1.00  0.00    -0.848 OA
ENDBRANCH  40  45
ENDBRANCH  35  36
ENDBRANCH  27  35
BRANCH  28  47
ATOM     47  C   UNL     1      73.414 -33.578 -62.537  1.00  0.00    -0.097 C 
ATOM     48  O   UNL     1      74.846 -33.671 -62.692  1.00  0.00    -0.848 OA
ENDBRANCH  28  47
ENDBRANCH   1  24
TORSDOF 12
ENDMDL
MODEL 15
REMARK VINA RESULT:    -7.631      2.359      4.599
REMARK INTER + INTRA:         -13.736
REMARK INTER:                 -12.754
REMARK INTRA:                  -0.982
REMARK UNBOUND:                -0.751
REMARK SMILES [C]C(=O)[N-][C]1[C](O[C]2[C]([O-])[C]([C][O-])O[C](O[C]3[C]([C][O-])O[C]([O-])[C]([O-])[C]3[O-])[C]2[O-])O[C]([C][O-])[C]([O-])[C]1O[C]1O[C]([C][O-])[C]([O-])[C]([O-])[C]1[O-]
REMARK SMILES IDX 7 1 8 2 15 3 28 4 14 5 11 6 9 7 29 8 10 9 16 10 17 11 22 12
REMARK SMILES IDX 24 13 21 14 26 15 18 16 23 17 25 18 27 19 19 20 20 21 12 22
REMARK SMILES IDX 13 23 6 24 5 25 30 26 36 27 31 28 34 29 35 30 4 31 2 32 3 33
REMARK SMILES IDX 1 34 37 35 38 36 47 37 39 38 45 39 40 40 43 41 48 42 46 43
REMARK SMILES IDX 44 44 41 45 42 46 32 47 33 48
REMARK H PARENT
ROOT
ATOM      1  O   UNL     1      75.990 -30.980 -59.323  1.00  0.00    -0.338 OA
ENDROOT
BRANCH   1   2
ATOM      2  C   UNL     1      77.174 -31.488 -59.903  1.00  0.00     0.088 C 
ATOM      3  C   UNL     1      79.573 -31.431 -59.616  1.00  0.00     0.216 C 
ATOM      4  C   UNL     1      78.250 -30.853 -59.130  1.00  0.00    -0.021 C 
ATOM      5  O   UNL     1      79.767 -31.099 -61.009  1.00  0.00    -0.338 OA
ATOM      6  C   UNL     1      78.705 -31.545 -61.901  1.00  0.00     0.081 C 
ATOM      7  C   UNL     1      77.360 -31.065 -61.356  1.00  0.00    -0.053 C 
ATOM      8  O   UNL     1      78.007 -31.006 -57.740  1.00  0.00    -0.844 OA
ATOM      9  O   UNL     1      77.362 -29.627 -61.412  1.00  0.00    -0.846 OA
BRANCH   3  10
ATOM     10  O   UNL     1      80.516 -30.798 -58.750  1.00  0.00    -0.334 OA
BRANCH  10  11
ATOM     11  C   UNL     1      81.816 -31.217 -59.051  1.00  0.00     0.123 C 
ATOM     12  C   UNL     1      84.530 -31.144 -58.210  1.00  0.00    -0.003 C 
ATOM     13  C   UNL     1      84.147 -30.411 -59.488  1.00  0.00    -0.115 C 
ATOM     14  O   UNL     1      83.690 -32.282 -58.032  1.00  0.00    -0.380 OA
ATOM     15  C   UNL     1      82.677 -30.006 -59.352  1.00  0.00    -0.094 C 
ATOM     16  C   UNL     1      82.295 -31.977 -57.848  1.00  0.00     0.118 C 
ATOM     17  O   UNL     1      85.809 -31.623 -58.244  1.00  0.00    -0.828 OA
ATOM     18  O   UNL     1      85.027 -29.307 -59.679  1.00  0.00    -0.849 OA
ATOM     19  O   UNL     1      82.133 -29.348 -60.487  1.00  0.00    -0.848 OA
BRANCH  16  20
ATOM     20  C   UNL     1      81.581 -33.308 -57.678  1.00  0.00    -0.093 C 
ATOM     21  O   UNL     1      80.617 -33.195 -56.633  1.00  0.00    -0.848 OA
ENDBRANCH  16  20
ENDBRANCH  10  11
ENDBRANCH   3  10
BRANCH   6  22
ATOM     22  C   UNL     1      79.011 -30.966 -63.281  1.00  0.00    -0.097 C 
ATOM     23  O   UNL     1      80.193 -31.535 -63.873  1.00  0.00    -0.848 OA
ENDBRANCH   6  22
ENDBRANCH   1   2
BRANCH   1  24
ATOM     24  C   UNL     1      75.479 -29.750 -59.790  1.00  0.00     0.215 C 
ATOM     25  C   UNL     1      73.939 -29.811 -59.802  1.00  0.00    -0.013 C 
ATOM     26  O   UNL     1      75.948 -28.620 -59.065  1.00  0.00    -0.338 OA
ATOM     27  C   UNL     1      73.407 -28.495 -60.385  1.00  0.00     0.087 C 
ATOM     28  C   UNL     1      75.565 -27.393 -59.705  1.00  0.00     0.081 C 
ATOM     29  C   UNL     1      74.035 -27.263 -59.689  1.00  0.00    -0.053 C 
ATOM     30  O   UNL     1      73.751 -26.013 -60.330  1.00  0.00    -0.846 OA
BRANCH  25  31
ATOM     31  N   UNL     1      73.310 -30.946 -60.456  1.00  0.00    -0.641 NA
BRANCH  31  32
ATOM     32  C   UNL     1      73.706 -31.530 -61.600  1.00  0.00     0.061 C 
ATOM     33  O   UNL     1      73.749 -30.938 -62.681  1.00  0.00    -0.320 OA
ATOM     34  C   UNL     1      74.167 -32.948 -61.491  1.00  0.00     0.051 C 
ENDBRANCH  31  32
ENDBRANCH  25  31
BRANCH  27  35
ATOM     35  O   UNL     1      72.008 -28.626 -60.171  1.00  0.00    -0.338 OA
BRANCH  35  36
ATOM     36  C   UNL     1      71.122 -28.452 -61.335  1.00  0.00     0.212 C 
ATOM     37  C   UNL     1      69.909 -29.398 -61.282  1.00  0.00    -0.069 C 
ATOM     38  O   UNL     1      70.743 -27.066 -61.272  1.00  0.00    -0.338 OA
ATOM     39  C   UNL     1      68.650 -28.862 -62.016  1.00  0.00    -0.138 C 
ATOM     40  C   UNL     1      69.911 -26.721 -62.401  1.00  0.00     0.077 C 
ATOM     41  C   UNL     1      68.575 -27.362 -62.117  1.00  0.00    -0.101 C 
ATOM     42  O   UNL     1      70.336 -30.655 -61.766  1.00  0.00    -0.847 OA
ATOM     43  O   UNL     1      67.477 -29.231 -61.287  1.00  0.00    -0.851 OA
ATOM     44  O   UNL     1      68.176 -26.911 -60.830  1.00  0.00    -0.848 OA
BRANCH  40  45
ATOM     45  C   UNL     1      69.869 -25.194 -62.556  1.00  0.00    -0.097 C 
ATOM     46  O   UNL     1      69.693 -24.682 -63.870  1.00  0.00    -0.848 OA
ENDBRANCH  40  45
ENDBRANCH  35  36
ENDBRANCH  27  35
BRANCH  28  47
ATOM     47  C   UNL     1      76.311 -26.309 -58.963  1.00  0.00    -0.097 C 
ATOM     48  O   UNL     1      76.911 -26.846 -57.764  1.00  0.00    -0.848 OA
ENDBRANCH  28  47
ENDBRANCH   1  24
TORSDOF 12
ENDMDL
MODEL 16
REMARK VINA RESULT:    -7.573      3.862     10.347
REMARK INTER + INTRA:         -13.636
REMARK INTER:                 -12.368
REMARK INTRA:                  -1.268
REMARK UNBOUND:                -0.751
REMARK SMILES [C]C(=O)[N-][C]1[C](O[C]2[C]([O-])[C]([C][O-])O[C](O[C]3[C]([C][O-])O[C]([O-])[C]([O-])[C]3[O-])[C]2[O-])O[C]([C][O-])[C]([O-])[C]1O[C]1O[C]([C][O-])[C]([O-])[C]([O-])[C]1[O-]
REMARK SMILES IDX 7 1 8 2 15 3 28 4 14 5 11 6 9 7 29 8 10 9 16 10 17 11 22 12
REMARK SMILES IDX 24 13 21 14 26 15 18 16 23 17 25 18 27 19 19 20 20 21 12 22
REMARK SMILES IDX 13 23 6 24 5 25 30 26 36 27 31 28 34 29 35 30 4 31 2 32 3 33
REMARK SMILES IDX 1 34 37 35 38 36 47 37 39 38 45 39 40 40 43 41 48 42 46 43
REMARK SMILES IDX 44 44 41 45 42 46 32 47 33 48
REMARK H PARENT
ROOT
ATOM      1  O   UNL     1      78.936 -32.065 -60.644  1.00  0.00    -0.338 OA
ENDROOT
BRANCH   1   2
ATOM      2  C   UNL     1      77.917 -31.150 -60.994  1.00  0.00     0.088 C 
ATOM      3  C   UNL     1      77.207 -28.882 -60.559  1.00  0.00     0.216 C 
ATOM      4  C   UNL     1      78.197 -29.970 -60.166  1.00  0.00    -0.021 C 
ATOM      5  O   UNL     1      75.861 -29.320 -60.270  1.00  0.00    -0.338 OA
ATOM      6  C   UNL     1      75.469 -30.566 -60.916  1.00  0.00     0.081 C 
ATOM      7  C   UNL     1      76.520 -31.635 -60.620  1.00  0.00    -0.053 C 
ATOM      8  O   UNL     1      79.564 -29.605 -60.285  1.00  0.00    -0.844 OA
ATOM      9  O   UNL     1      76.493 -31.885 -59.203  1.00  0.00    -0.846 OA
BRANCH   3  10
ATOM     10  O   UNL     1      77.628 -27.784 -59.748  1.00  0.00    -0.334 OA
BRANCH  10  11
ATOM     11  C   UNL     1      76.827 -27.684 -58.605  1.00  0.00     0.123 C 
ATOM     12  C   UNL     1      76.257 -26.120 -56.301  1.00  0.00    -0.003 C 
ATOM     13  C   UNL     1      76.886 -27.493 -56.108  1.00  0.00    -0.115 C 
ATOM     14  O   UNL     1      75.433 -26.123 -57.463  1.00  0.00    -0.380 OA
ATOM     15  C   UNL     1      77.699 -27.798 -57.369  1.00  0.00    -0.094 C 
ATOM     16  C   UNL     1      76.136 -26.355 -58.699  1.00  0.00     0.118 C 
ATOM     17  O   UNL     1      75.442 -25.767 -55.263  1.00  0.00    -0.828 OA
ATOM     18  O   UNL     1      77.666 -27.490 -54.915  1.00  0.00    -0.849 OA
ATOM     19  O   UNL     1      78.321 -29.075 -57.384  1.00  0.00    -0.848 OA
BRANCH  16  20
ATOM     20  C   UNL     1      75.091 -26.319 -59.803  1.00  0.00    -0.093 C 
ATOM     21  O   UNL     1      74.382 -25.083 -59.740  1.00  0.00    -0.848 OA
ENDBRANCH  16  20
ENDBRANCH  10  11
ENDBRANCH   3  10
BRANCH   6  22
ATOM     22  C   UNL     1      74.094 -30.939 -60.365  1.00  0.00    -0.097 C 
ATOM     23  O   UNL     1      73.238 -29.794 -60.188  1.00  0.00    -0.848 OA
ENDBRANCH   6  22
ENDBRANCH   1   2
BRANCH   1  24
ATOM     24  C   UNL     1      80.067 -32.173 -61.481  1.00  0.00     0.215 C 
ATOM     25  C   UNL     1      81.239 -32.770 -60.678  1.00  0.00    -0.013 C 
ATOM     26  O   UNL     1      79.830 -32.906 -62.676  1.00  0.00    -0.338 OA
ATOM     27  C   UNL     1      82.478 -32.806 -61.582  1.00  0.00     0.087 C 
ATOM     28  C   UNL     1      80.944 -32.810 -63.578  1.00  0.00     0.081 C 
ATOM     29  C   UNL     1      82.174 -33.477 -62.945  1.00  0.00    -0.053 C 
ATOM     30  O   UNL     1      83.221 -33.345 -63.915  1.00  0.00    -0.846 OA
BRANCH  25  31
ATOM     31  N   UNL     1      81.563 -32.162 -59.399  1.00  0.00    -0.641 NA
BRANCH  31  32
ATOM     32  C   UNL     1      81.072 -32.514 -58.198  1.00  0.00     0.061 C 
ATOM     33  O   UNL     1      80.363 -31.771 -57.514  1.00  0.00    -0.320 OA
ATOM     34  C   UNL     1      81.375 -33.906 -57.744  1.00  0.00     0.051 C 
ENDBRANCH  31  32
ENDBRANCH  25  31
BRANCH  27  35
ATOM     35  O   UNL     1      83.404 -33.527 -60.780  1.00  0.00    -0.338 OA
BRANCH  35  36
ATOM     36  C   UNL     1      84.659 -32.849 -60.414  1.00  0.00     0.212 C 
ATOM     37  C   UNL     1      85.067 -31.793 -61.458  1.00  0.00    -0.069 C 
ATOM     38  O   UNL     1      84.374 -32.272 -59.128  1.00  0.00    -0.338 OA
ATOM     39  C   UNL     1      85.911 -30.623 -60.883  1.00  0.00    -0.138 C 
ATOM     40  C   UNL     1      85.549 -31.615 -58.602  1.00  0.00     0.077 C 
ATOM     41  C   UNL     1      85.695 -30.356 -59.418  1.00  0.00    -0.101 C 
ATOM     42  O   UNL     1      85.715 -32.475 -62.513  1.00  0.00    -0.847 OA
ATOM     43  O   UNL     1      85.541 -29.403 -61.529  1.00  0.00    -0.851 OA
ATOM     44  O   UNL     1      84.452 -29.672 -59.333  1.00  0.00    -0.848 OA
BRANCH  40  45
ATOM     45  C   UNL     1      85.371 -31.385 -57.094  1.00  0.00    -0.097 C 
ATOM     46  O   UNL     1      84.075 -31.607 -56.555  1.00  0.00    -0.848 OA
ENDBRANCH  40  45
ENDBRANCH  35  36
ENDBRANCH  27  35
BRANCH  28  47
ATOM     47  C   UNL     1      80.465 -33.435 -64.868  1.00  0.00    -0.097 C 
ATOM     48  O   UNL     1      79.050 -33.713 -64.793  1.00  0.00    -0.848 OA
ENDBRANCH  28  47
ENDBRANCH   1  24
TORSDOF 12
ENDMDL
MODEL 17
REMARK VINA RESULT:    -7.520      2.450      6.154
REMARK INTER + INTRA:         -13.547
REMARK INTER:                 -12.241
REMARK INTRA:                  -1.306
REMARK UNBOUND:                -0.751
REMARK SMILES [C]C(=O)[N-][C]1[C](O[C]2[C]([O-])[C]([C][O-])O[C](O[C]3[C]([C][O-])O[C]([O-])[C]([O-])[C]3[O-])[C]2[O-])O[C]([C][O-])[C]([O-])[C]1O[C]1O[C]([C][O-])[C]([O-])[C]([O-])[C]1[O-]
REMARK SMILES IDX 7 1 8 2 15 3 28 4 14 5 11 6 9 7 29 8 10 9 16 10 17 11 22 12
REMARK SMILES IDX 24 13 21 14 26 15 18 16 23 17 25 18 27 19 19 20 20 21 12 22
REMARK SMILES IDX 13 23 6 24 5 25 30 26 36 27 31 28 34 29 35 30 4 31 2 32 3 33
REMARK SMILES IDX 1 34 37 35 38 36 47 37 39 38 45 39 40 40 43 41 48 42 46 43
REMARK SMILES IDX 44 44 41 45 42 46 32 47 33 48
REMARK H PARENT
ROOT
ATOM      1  O   UNL     1      78.535 -30.134 -57.612  1.00  0.00    -0.338 OA
ENDROOT
BRANCH   1   2
ATOM      2  C   UNL     1      79.860 -30.095 -57.122  1.00  0.00     0.088 C 
ATOM      3  C   UNL     1      81.931 -31.336 -57.223  1.00  0.00     0.216 C 
ATOM      4  C   UNL     1      80.458 -31.343 -57.612  1.00  0.00    -0.021 C 
ATOM      5  O   UNL     1      82.054 -31.317 -55.783  1.00  0.00    -0.338 OA
ATOM      6  C   UNL     1      81.389 -30.200 -55.124  1.00  0.00     0.081 C 
ATOM      7  C   UNL     1      79.938 -30.132 -55.599  1.00  0.00    -0.053 C 
ATOM      8  O   UNL     1      80.210 -31.490 -59.002  1.00  0.00    -0.844 OA
ATOM      9  O   UNL     1      79.279 -31.326 -55.141  1.00  0.00    -0.846 OA
BRANCH   3  10
ATOM     10  O   UNL     1      82.405 -32.547 -57.813  1.00  0.00    -0.334 OA
BRANCH  10  11
ATOM     11  C   UNL     1      83.511 -32.292 -58.631  1.00  0.00     0.123 C 
ATOM     12  C   UNL     1      84.987 -30.267 -59.972  1.00  0.00    -0.003 C 
ATOM     13  C   UNL     1      84.220 -31.280 -60.810  1.00  0.00    -0.115 C 
ATOM     14  O   UNL     1      85.421 -30.870 -58.756  1.00  0.00    -0.380 OA
ATOM     15  C   UNL     1      83.034 -31.758 -59.968  1.00  0.00    -0.094 C 
ATOM     16  C   UNL     1      84.358 -31.302 -57.886  1.00  0.00     0.118 C 
ATOM     17  O   UNL     1      86.118 -29.821 -60.595  1.00  0.00    -0.828 OA
ATOM     18  O   UNL     1      83.837 -30.678 -62.044  1.00  0.00    -0.849 OA
ATOM     19  O   UNL     1      82.230 -32.755 -60.581  1.00  0.00    -0.848 OA
BRANCH  16  20
ATOM     20  C   UNL     1      85.023 -31.910 -56.662  1.00  0.00    -0.093 C 
ATOM     21  O   UNL     1      85.409 -30.866 -55.769  1.00  0.00    -0.848 OA
ENDBRANCH  16  20
ENDBRANCH  10  11
ENDBRANCH   3  10
BRANCH   6  22
ATOM     22  C   UNL     1      81.495 -30.445 -53.621  1.00  0.00    -0.097 C 
ATOM     23  O   UNL     1      82.329 -31.574 -53.299  1.00  0.00    -0.848 OA
ENDBRANCH   6  22
ENDBRANCH   1   2
BRANCH   1  24
ATOM     24  C   UNL     1      77.941 -28.934 -58.057  1.00  0.00     0.215 C 
ATOM     25  C   UNL     1      77.103 -29.219 -59.319  1.00  0.00    -0.013 C 
ATOM     26  O   UNL     1      77.171 -28.270 -57.063  1.00  0.00    -0.338 OA
ATOM     27  C   UNL     1      76.531 -27.890 -59.831  1.00  0.00     0.087 C 
ATOM     28  C   UNL     1      76.764 -26.965 -57.502  1.00  0.00     0.081 C 
ATOM     29  C   UNL     1      75.819 -27.101 -58.705  1.00  0.00    -0.053 C 
ATOM     30  O   UNL     1      75.457 -25.760 -59.061  1.00  0.00    -0.846 OA
BRANCH  25  31
ATOM     31  N   UNL     1      77.739 -29.948 -60.404  1.00  0.00    -0.641 NA
BRANCH  31  32
ATOM     32  C   UNL     1      77.505 -31.224 -60.755  1.00  0.00     0.061 C 
ATOM     33  O   UNL     1      77.059 -32.069 -59.974  1.00  0.00    -0.320 OA
ATOM     34  C   UNL     1      77.753 -31.570 -62.188  1.00  0.00     0.051 C 
ENDBRANCH  31  32
ENDBRANCH  25  31
BRANCH  27  35
ATOM     35  O   UNL     1      75.660 -28.328 -60.866  1.00  0.00    -0.338 OA
BRANCH  35  36
ATOM     36  C   UNL     1      74.368 -28.912 -60.468  1.00  0.00     0.212 C 
ATOM     37  C   UNL     1      73.178 -28.096 -61.005  1.00  0.00    -0.069 C 
ATOM     38  O   UNL     1      74.413 -30.243 -61.010  1.00  0.00    -0.338 OA
ATOM     39  C   UNL     1      71.887 -28.928 -61.234  1.00  0.00    -0.138 C 
ATOM     40  C   UNL     1      73.222 -30.974 -60.643  1.00  0.00     0.077 C 
ATOM     41  C   UNL     1      72.123 -30.391 -61.494  1.00  0.00    -0.101 C 
ATOM     42  O   UNL     1      72.985 -27.008 -60.124  1.00  0.00    -0.847 OA
ATOM     43  O   UNL     1      71.216 -28.458 -62.404  1.00  0.00    -0.851 OA
ATOM     44  O   UNL     1      72.569 -30.473 -62.842  1.00  0.00    -0.848 OA
BRANCH  40  45
ATOM     45  C   UNL     1      73.464 -32.477 -60.848  1.00  0.00    -0.097 C 
ATOM     46  O   UNL     1      74.463 -32.849 -61.788  1.00  0.00    -0.848 OA
ENDBRANCH  40  45
ENDBRANCH  35  36
ENDBRANCH  27  35
BRANCH  28  47
ATOM     47  C   UNL     1      76.163 -26.305 -56.283  1.00  0.00    -0.097 C 
ATOM     48  O   UNL     1      74.831 -26.811 -56.047  1.00  0.00    -0.848 OA
ENDBRANCH  28  47
ENDBRANCH   1  24
TORSDOF 12
ENDMDL
MODEL 18
REMARK VINA RESULT:    -7.335      2.752      4.965
REMARK INTER + INTRA:         -13.232
REMARK INTER:                 -11.473
REMARK INTRA:                  -1.759
REMARK UNBOUND:                -0.751
REMARK SMILES [C]C(=O)[N-][C]1[C](O[C]2[C]([O-])[C]([C][O-])O[C](O[C]3[C]([C][O-])O[C]([O-])[C]([O-])[C]3[O-])[C]2[O-])O[C]([C][O-])[C]([O-])[C]1O[C]1O[C]([C][O-])[C]([O-])[C]([O-])[C]1[O-]
REMARK SMILES IDX 7 1 8 2 15 3 28 4 14 5 11 6 9 7 29 8 10 9 16 10 17 11 22 12
REMARK SMILES IDX 24 13 21 14 26 15 18 16 23 17 25 18 27 19 19 20 20 21 12 22
REMARK SMILES IDX 13 23 6 24 5 25 30 26 36 27 31 28 34 29 35 30 4 31 2 32 3 33
REMARK SMILES IDX 1 34 37 35 38 36 47 37 39 38 45 39 40 40 43 41 48 42 46 43
REMARK SMILES IDX 44 44 41 45 42 46 32 47 33 48
REMARK H PARENT
ROOT
ATOM      1  O   UNL     1      78.515 -31.144 -61.296  1.00  0.00    -0.338 OA
ENDROOT
BRANCH   1   2
ATOM      2  C   UNL     1      79.800 -31.722 -61.201  1.00  0.00     0.088 C 
ATOM      3  C   UNL     1      82.052 -31.177 -60.513  1.00  0.00     0.216 C 
ATOM      4  C   UNL     1      80.656 -30.616 -60.752  1.00  0.00    -0.021 C 
ATOM      5  O   UNL     1      82.592 -31.684 -61.753  1.00  0.00    -0.338 OA
ATOM      6  C   UNL     1      81.782 -32.706 -62.404  1.00  0.00     0.081 C 
ATOM      7  C   UNL     1      80.349 -32.193 -62.544  1.00  0.00    -0.053 C 
ATOM      8  O   UNL     1      80.072 -29.972 -59.630  1.00  0.00    -0.844 OA
ATOM      9  O   UNL     1      80.380 -31.067 -63.439  1.00  0.00    -0.846 OA
BRANCH   3  10
ATOM     10  O   UNL     1      82.755 -30.036 -60.018  1.00  0.00    -0.334 OA
BRANCH  10  11
ATOM     11  C   UNL     1      83.639 -30.410 -59.000  1.00  0.00     0.123 C 
ATOM     12  C   UNL     1      84.905 -32.610 -57.720  1.00  0.00    -0.003 C 
ATOM     13  C   UNL     1      83.869 -31.814 -56.939  1.00  0.00    -0.115 C 
ATOM     14  O   UNL     1      85.574 -31.758 -58.646  1.00  0.00    -0.380 OA
ATOM     15  C   UNL     1      82.893 -31.221 -57.958  1.00  0.00    -0.094 C 
ATOM     16  C   UNL     1      84.728 -31.199 -59.668  1.00  0.00     0.118 C 
ATOM     17  O   UNL     1      85.879 -33.131 -56.917  1.00  0.00    -0.828 OA
ATOM     18  O   UNL     1      83.244 -32.667 -55.982  1.00  0.00    -0.849 OA
ATOM     19  O   UNL     1      81.877 -30.398 -57.403  1.00  0.00    -0.848 OA
BRANCH  16  20
ATOM     20  C   UNL     1      85.622 -30.333 -60.541  1.00  0.00    -0.093 C 
ATOM     21  O   UNL     1      86.088 -31.102 -61.648  1.00  0.00    -0.848 OA
ENDBRANCH  16  20
ENDBRANCH  10  11
ENDBRANCH   3  10
BRANCH   6  22
ATOM     22  C   UNL     1      82.429 -32.991 -63.758  1.00  0.00    -0.097 C 
ATOM     23  O   UNL     1      83.518 -32.096 -64.052  1.00  0.00    -0.848 OA
ENDBRANCH   6  22
ENDBRANCH   1   2
BRANCH   1  24
ATOM     24  C   UNL     1      77.388 -31.994 -61.307  1.00  0.00     0.215 C 
ATOM     25  C   UNL     1      76.199 -31.271 -60.645  1.00  0.00    -0.013 C 
ATOM     26  O   UNL     1      77.046 -32.479 -62.599  1.00  0.00    -0.338 OA
ATOM     27  C   UNL     1      75.009 -32.238 -60.597  1.00  0.00     0.087 C 
ATOM     28  C   UNL     1      76.031 -33.493 -62.524  1.00  0.00     0.081 C 
ATOM     29  C   UNL     1      74.733 -32.878 -61.980  1.00  0.00    -0.053 C 
ATOM     30  O   UNL     1      73.783 -33.951 -61.955  1.00  0.00    -0.846 OA
BRANCH  25  31
ATOM     31  N   UNL     1      76.414 -30.666 -59.342  1.00  0.00    -0.641 NA
BRANCH  31  32
ATOM     32  C   UNL     1      76.839 -29.414 -59.100  1.00  0.00     0.061 C 
ATOM     33  O   UNL     1      76.985 -28.568 -59.987  1.00  0.00    -0.320 OA
ATOM     34  C   UNL     1      77.069 -29.061 -57.666  1.00  0.00     0.051 C 
ENDBRANCH  31  32
ENDBRANCH  25  31
BRANCH  27  35
ATOM     35  O   UNL     1      73.964 -31.392 -60.135  1.00  0.00    -0.338 OA
BRANCH  35  36
ATOM     36  C   UNL     1      73.561 -30.273 -61.004  1.00  0.00     0.212 C 
ATOM     37  C   UNL     1      72.155 -30.481 -61.595  1.00  0.00    -0.069 C 
ATOM     38  O   UNL     1      73.630 -29.126 -60.139  1.00  0.00    -0.338 OA
ATOM     39  C   UNL     1      71.399 -29.165 -61.923  1.00  0.00    -0.138 C 
ATOM     40  C   UNL     1      73.318 -27.923 -60.875  1.00  0.00     0.077 C 
ATOM     41  C   UNL     1      71.828 -27.977 -61.105  1.00  0.00    -0.101 C 
ATOM     42  O   UNL     1      72.293 -31.332 -62.715  1.00  0.00    -0.847 OA
ATOM     43  O   UNL     1      70.011 -29.323 -61.627  1.00  0.00    -0.851 OA
ATOM     44  O   UNL     1      71.228 -28.155 -59.828  1.00  0.00    -0.848 OA
BRANCH  40  45
ATOM     45  C   UNL     1      73.800 -26.700 -60.080  1.00  0.00    -0.097 C 
ATOM     46  O   UNL     1      74.438 -26.949 -58.835  1.00  0.00    -0.848 OA
ENDBRANCH  40  45
ENDBRANCH  35  36
ENDBRANCH  27  35
BRANCH  28  47
ATOM     47  C   UNL     1      75.936 -34.062 -63.921  1.00  0.00    -0.097 C 
ATOM     48  O   UNL     1      77.150 -33.792 -64.654  1.00  0.00    -0.848 OA
ENDBRANCH  28  47
ENDBRANCH   1  24
TORSDOF 12
ENDMDL
MODEL 19
REMARK VINA RESULT:    -7.305      2.001     10.347
REMARK INTER + INTRA:         -13.182
REMARK INTER:                 -11.089
REMARK INTRA:                  -2.092
REMARK UNBOUND:                -0.751
REMARK SMILES [C]C(=O)[N-][C]1[C](O[C]2[C]([O-])[C]([C][O-])O[C](O[C]3[C]([C][O-])O[C]([O-])[C]([O-])[C]3[O-])[C]2[O-])O[C]([C][O-])[C]([O-])[C]1O[C]1O[C]([C][O-])[C]([O-])[C]([O-])[C]1[O-]
REMARK SMILES IDX 7 1 8 2 15 3 28 4 14 5 11 6 9 7 29 8 10 9 16 10 17 11 22 12
REMARK SMILES IDX 24 13 21 14 26 15 18 16 23 17 25 18 27 19 19 20 20 21 12 22
REMARK SMILES IDX 13 23 6 24 5 25 30 26 36 27 31 28 34 29 35 30 4 31 2 32 3 33
REMARK SMILES IDX 1 34 37 35 38 36 47 37 39 38 45 39 40 40 43 41 48 42 46 43
REMARK SMILES IDX 44 44 41 45 42 46 32 47 33 48
REMARK H PARENT
ROOT
ATOM      1  O   UNL     1      77.147 -31.403 -59.857  1.00  0.00    -0.338 OA
ENDROOT
BRANCH   1   2
ATOM      2  C   UNL     1      76.186 -31.337 -60.890  1.00  0.00     0.088 C 
ATOM      3  C   UNL     1      73.902 -30.648 -61.280  1.00  0.00     0.216 C 
ATOM      4  C   UNL     1      74.971 -30.859 -60.215  1.00  0.00    -0.021 C 
ATOM      5  O   UNL     1      73.593 -31.909 -61.915  1.00  0.00    -0.338 OA
ATOM      6  C   UNL     1      74.732 -32.586 -62.522  1.00  0.00     0.081 C 
ATOM      7  C   UNL     1      75.854 -32.698 -61.491  1.00  0.00    -0.053 C 
ATOM      8  O   UNL     1      75.268 -29.712 -59.433  1.00  0.00    -0.844 OA
ATOM      9  O   UNL     1      75.385 -33.556 -60.436  1.00  0.00    -0.846 OA
BRANCH   3  10
ATOM     10  O   UNL     1      72.816 -30.122 -60.517  1.00  0.00    -0.334 OA
BRANCH  10  11
ATOM     11  C   UNL     1      72.062 -29.231 -61.289  1.00  0.00     0.123 C 
ATOM     12  C   UNL     1      69.940 -27.341 -61.239  1.00  0.00    -0.003 C 
ATOM     13  C   UNL     1      69.732 -28.645 -61.996  1.00  0.00    -0.115 C 
ATOM     14  O   UNL     1      71.314 -26.967 -61.284  1.00  0.00    -0.380 OA
ATOM     15  C   UNL     1      70.620 -29.700 -61.332  1.00  0.00    -0.094 C 
ATOM     16  C   UNL     1      72.210 -27.889 -60.634  1.00  0.00     0.118 C 
ATOM     17  O   UNL     1      69.249 -26.300 -61.791  1.00  0.00    -0.828 OA
ATOM     18  O   UNL     1      68.346 -28.980 -61.987  1.00  0.00    -0.849 OA
ATOM     19  O   UNL     1      70.590 -30.979 -61.947  1.00  0.00    -0.848 OA
BRANCH  16  20
ATOM     20  C   UNL     1      73.608 -27.315 -60.792  1.00  0.00    -0.093 C 
ATOM     21  O   UNL     1      74.022 -26.734 -59.556  1.00  0.00    -0.848 OA
ENDBRANCH  16  20
ENDBRANCH  10  11
ENDBRANCH   3  10
BRANCH   6  22
ATOM     22  C   UNL     1      74.238 -33.953 -62.990  1.00  0.00    -0.097 C 
ATOM     23  O   UNL     1      72.803 -34.019 -63.095  1.00  0.00    -0.848 OA
ENDBRANCH   6  22
ENDBRANCH   1   2
BRANCH   1  24
ATOM     24  C   UNL     1      78.483 -31.056 -60.150  1.00  0.00     0.215 C 
ATOM     25  C   UNL     1      79.171 -30.549 -58.867  1.00  0.00    -0.013 C 
ATOM     26  O   UNL     1      79.229 -32.101 -60.760  1.00  0.00    -0.338 OA
ATOM     27  C   UNL     1      80.595 -30.103 -59.224  1.00  0.00     0.087 C 
ATOM     28  C   UNL     1      80.506 -31.632 -61.221  1.00  0.00     0.081 C 
ATOM     29  C   UNL     1      81.355 -31.194 -60.019  1.00  0.00    -0.053 C 
ATOM     30  O   UNL     1      82.604 -30.759 -60.572  1.00  0.00    -0.846 OA
BRANCH  25  31
ATOM     31  N   UNL     1      78.495 -29.518 -58.098  1.00  0.00    -0.641 NA
BRANCH  31  32
ATOM     32  C   UNL     1      77.764 -29.699 -56.985  1.00  0.00     0.061 C 
ATOM     33  O   UNL     1      77.421 -30.812 -56.576  1.00  0.00    -0.320 OA
ATOM     34  C   UNL     1      77.430 -28.467 -56.207  1.00  0.00     0.051 C 
ENDBRANCH  31  32
ENDBRANCH  25  31
BRANCH  27  35
ATOM     35  O   UNL     1      81.147 -29.836 -57.941  1.00  0.00    -0.338 OA
BRANCH  35  36
ATOM     36  C   UNL     1      81.456 -30.991 -57.080  1.00  0.00     0.212 C 
ATOM     37  C   UNL     1      82.966 -31.114 -56.803  1.00  0.00    -0.069 C 
ATOM     38  O   UNL     1      80.696 -30.740 -55.886  1.00  0.00    -0.338 OA
ATOM     39  C   UNL     1      83.313 -31.802 -55.455  1.00  0.00    -0.138 C 
ATOM     40  C   UNL     1      80.849 -31.833 -54.954  1.00  0.00     0.077 C 
ATOM     41  C   UNL     1      82.244 -31.688 -54.401  1.00  0.00    -0.101 C 
ATOM     42  O   UNL     1      83.545 -31.761 -57.919  1.00  0.00    -0.847 OA
ATOM     43  O   UNL     1      84.457 -31.173 -54.877  1.00  0.00    -0.851 OA
ATOM     44  O   UNL     1      82.344 -30.362 -53.898  1.00  0.00    -0.848 OA
BRANCH  40  45
ATOM     45  C   UNL     1      79.732 -31.767 -53.902  1.00  0.00    -0.097 C 
ATOM     46  O   UNL     1      78.635 -32.655 -54.067  1.00  0.00    -0.848 OA
ENDBRANCH  40  45
ENDBRANCH  35  36
ENDBRANCH  27  35
BRANCH  28  47
ATOM     47  C   UNL     1      81.078 -32.773 -62.031  1.00  0.00    -0.097 C 
ATOM     48  O   UNL     1      80.887 -34.024 -61.337  1.00  0.00    -0.848 OA
ENDBRANCH  28  47
ENDBRANCH   1  24
TORSDOF 12
ENDMDL
MODEL 20
REMARK VINA RESULT:    -7.276      2.498     10.683
REMARK INTER + INTRA:         -13.131
REMARK INTER:                 -11.404
REMARK INTRA:                  -1.728
REMARK UNBOUND:                -0.751
REMARK SMILES [C]C(=O)[N-][C]1[C](O[C]2[C]([O-])[C]([C][O-])O[C](O[C]3[C]([C][O-])O[C]([O-])[C]([O-])[C]3[O-])[C]2[O-])O[C]([C][O-])[C]([O-])[C]1O[C]1O[C]([C][O-])[C]([O-])[C]([O-])[C]1[O-]
REMARK SMILES IDX 7 1 8 2 15 3 28 4 14 5 11 6 9 7 29 8 10 9 16 10 17 11 22 12
REMARK SMILES IDX 24 13 21 14 26 15 18 16 23 17 25 18 27 19 19 20 20 21 12 22
REMARK SMILES IDX 13 23 6 24 5 25 30 26 36 27 31 28 34 29 35 30 4 31 2 32 3 33
REMARK SMILES IDX 1 34 37 35 38 36 47 37 39 38 45 39 40 40 43 41 48 42 46 43
REMARK SMILES IDX 44 44 41 45 42 46 32 47 33 48
REMARK H PARENT
ROOT
ATOM      1  O   UNL     1      77.959 -29.754 -59.454  1.00  0.00    -0.338 OA
ENDROOT
BRANCH   1   2
ATOM      2  C   UNL     1      76.718 -29.265 -58.990  1.00  0.00     0.088 C 
ATOM      3  C   UNL     1      74.498 -28.737 -59.785  1.00  0.00     0.216 C 
ATOM      4  C   UNL     1      75.901 -29.154 -60.206  1.00  0.00    -0.021 C 
ATOM      5  O   UNL     1      74.544 -27.436 -59.158  1.00  0.00    -0.338 OA
ATOM      6  C   UNL     1      75.427 -27.342 -58.003  1.00  0.00     0.081 C 
ATOM      7  C   UNL     1      76.810 -27.868 -58.387  1.00  0.00    -0.053 C 
ATOM      8  O   UNL     1      75.966 -30.362 -60.948  1.00  0.00    -0.844 OA
ATOM      9  O   UNL     1      77.347 -26.980 -59.383  1.00  0.00    -0.846 OA
BRANCH   3  10
ATOM     10  O   UNL     1      73.797 -28.737 -61.030  1.00  0.00    -0.334 OA
BRANCH  10  11
ATOM     11  C   UNL     1      72.433 -28.967 -60.823  1.00  0.00     0.123 C 
ATOM     12  C   UNL     1      69.919 -29.313 -62.103  1.00  0.00    -0.003 C 
ATOM     13  C   UNL     1      70.141 -28.060 -61.269  1.00  0.00    -0.115 C 
ATOM     14  O   UNL     1      70.673 -30.396 -61.565  1.00  0.00    -0.380 OA
ATOM     15  C   UNL     1      71.643 -27.762 -61.294  1.00  0.00    -0.094 C 
ATOM     16  C   UNL     1      72.101 -30.209 -61.599  1.00  0.00     0.118 C 
ATOM     17  O   UNL     1      68.616 -29.723 -62.096  1.00  0.00    -0.828 OA
ATOM     18  O   UNL     1      69.341 -27.000 -61.788  1.00  0.00    -0.849 OA
ATOM     19  O   UNL     1      72.041 -26.642 -60.517  1.00  0.00    -0.848 OA
BRANCH  16  20
ATOM     20  C   UNL     1      72.714 -31.458 -60.987  1.00  0.00    -0.093 C 
ATOM     21  O   UNL     1      72.322 -32.597 -61.751  1.00  0.00    -0.848 OA
ENDBRANCH  16  20
ENDBRANCH  10  11
ENDBRANCH   3  10
BRANCH   6  22
ATOM     22  C   UNL     1      75.462 -25.872 -57.589  1.00  0.00    -0.097 C 
ATOM     23  O   UNL     1      75.192 -25.684 -56.186  1.00  0.00    -0.848 OA
ENDBRANCH   6  22
ENDBRANCH   1   2
BRANCH   1  24
ATOM     24  C   UNL     1      78.748 -30.539 -58.586  1.00  0.00     0.215 C 
ATOM     25  C   UNL     1      79.713 -31.406 -59.418  1.00  0.00    -0.013 C 
ATOM     26  O   UNL     1      79.445 -29.785 -57.603  1.00  0.00    -0.338 OA
ATOM     27  C   UNL     1      80.504 -32.307 -58.460  1.00  0.00     0.087 C 
ATOM     28  C   UNL     1      80.060 -30.640 -56.627  1.00  0.00     0.081 C 
ATOM     29  C   UNL     1      81.140 -31.496 -57.304  1.00  0.00    -0.053 C 
ATOM     30  O   UNL     1      81.704 -32.299 -56.259  1.00  0.00    -0.846 OA
BRANCH  25  31
ATOM     31  N   UNL     1      79.152 -32.191 -60.505  1.00  0.00    -0.641 NA
BRANCH  31  32
ATOM     32  C   UNL     1      79.015 -31.803 -61.784  1.00  0.00     0.061 C 
ATOM     33  O   UNL     1      79.536 -30.781 -62.240  1.00  0.00    -0.320 OA
ATOM     34  C   UNL     1      78.237 -32.721 -62.672  1.00  0.00     0.051 C 
ENDBRANCH  31  32
ENDBRANCH  25  31
BRANCH  27  35
ATOM     35  O   UNL     1      81.452 -32.902 -59.336  1.00  0.00    -0.338 OA
BRANCH  35  36
ATOM     36  C   UNL     1      82.355 -32.003 -60.074  1.00  0.00     0.212 C 
ATOM     37  C   UNL     1      83.775 -31.999 -59.479  1.00  0.00    -0.069 C 
ATOM     38  O   UNL     1      82.322 -32.513 -61.418  1.00  0.00    -0.338 OA
ATOM     39  C   UNL     1      84.895 -31.671 -60.504  1.00  0.00    -0.138 C 
ATOM     40  C   UNL     1      83.124 -31.684 -62.289  1.00  0.00     0.077 C 
ATOM     41  C   UNL     1      84.554 -32.004 -61.931  1.00  0.00    -0.101 C 
ATOM     42  O   UNL     1      83.764 -31.119 -58.373  1.00  0.00    -0.847 OA
ATOM     43  O   UNL     1      86.052 -32.459 -60.217  1.00  0.00    -0.851 OA
ATOM     44  O   UNL     1      84.691 -33.415 -62.038  1.00  0.00    -0.848 OA
BRANCH  40  45
ATOM     45  C   UNL     1      82.749 -31.969 -63.751  1.00  0.00    -0.097 C 
ATOM     46  O   UNL     1      81.588 -32.755 -63.978  1.00  0.00    -0.848 OA
ENDBRANCH  40  45
ENDBRANCH  35  36
ENDBRANCH  27  35
BRANCH  28  47
ATOM     47  C   UNL     1      80.560 -29.711 -55.544  1.00  0.00    -0.097 C 
ATOM     48  O   UNL     1      80.403 -28.336 -55.955  1.00  0.00    -0.848 OA
ENDBRANCH  28  47
ENDBRANCH   1  24
TORSDOF 12
ENDMDL
